145720578
  -OEChem-08242509323D

 68 70  0     1  0  0  0  0  0999 V2000
   -6.3847   -0.1688    1.2050 Cl  0  0  0  0  0  0  0  0  0  0  0  0
   -5.0067   -1.4519   -1.4767 Cl  0  0  0  0  0  0  0  0  0  0  0  0
   -3.4544   -0.2420    2.3522 O   0  0  0  0  0  0  0  0  0  0  0  0
   -1.8419    2.5003   -2.2067 O   0  0  0  0  0  0  0  0  0  0  0  0
   -0.4013   -1.5185   -1.2444 O   0  0  0  0  0  0  0  0  0  0  0  0
    0.4792    1.1941    1.6880 O   0  0  0  0  0  0  0  0  0  0  0  0
    3.1303   -1.0778   -1.4422 O   0  0  0  0  0  0  0  0  0  0  0  0
    3.1726   -4.2063   -1.5927 O   0  0  0  0  0  0  0  0  0  0  0  0
   -3.3994    1.4855   -0.8453 N   0  0  0  0  0  0  0  0  0  0  0  0
   -2.4219   -0.7487    0.3489 N   0  0  0  0  0  0  0  0  0  0  0  0
   -0.0538    2.5193   -0.1434 N   0  0  0  0  0  0  0  0  0  0  0  0
    0.7021   -2.5359    0.5317 N   0  0  0  0  0  0  0  0  0  0  0  0
    2.6895   -0.6077    0.7911 N   0  0  0  0  0  0  0  0  0  0  0  0
   -4.0081    1.1346    0.4504 C   0  0  1  0  0  0  0  0  0  0  0  0
   -5.4665    0.8292    0.0686 C   0  0  1  0  0  0  0  0  0  0  0  0
   -5.3990    0.2859   -1.3645 C   0  0  1  0  0  0  0  0  0  0  0  0
   -4.2697    1.1190   -1.9641 C   0  0  0  0  0  0  0  0  0  0  0  0
   -3.2595   -0.0061    1.1591 C   0  0  0  0  0  0  0  0  0  0  0  0
   -2.2368    2.2127   -1.0719 C   0  0  0  0  0  0  0  0  0  0  0  0
   -1.4692    2.6939    0.1563 C   0  0  2  0  0  0  0  0  0  0  0  0
   -1.5961   -1.8434    0.8336 C   0  0  1  0  0  0  0  0  0  0  0  0
   -1.7872    4.1571    0.4283 C   0  0  0  0  0  0  0  0  0  0  0  0
   -2.3608   -3.1590    0.8361 C   0  0  0  0  0  0  0  0  0  0  0  0
   -0.3849   -1.9306   -0.0863 C   0  0  0  0  0  0  0  0  0  0  0  0
    3.1551    0.7824    0.8516 C   0  0  2  0  0  0  0  0  0  0  0  0
    2.2104    1.7178    0.0712 C   0  0  0  0  0  0  0  0  0  0  0  0
    0.7995    1.7604    0.6463 C   0  0  0  0  0  0  0  0  0  0  0  0
    1.9953   -2.7488   -0.1105 C   0  0  2  0  0  0  0  0  0  0  0  0
   -3.5906   -3.0883    1.7238 C   0  0  0  0  0  0  0  0  0  0  0  0
    2.6406   -1.3863   -0.3582 C   0  0  0  0  0  0  0  0  0  0  0  0
    4.6306    0.8906    0.5055 C   0  0  0  0  0  0  0  0  0  0  0  0
    1.9069   -3.6133   -1.3607 C   0  0  0  0  0  0  0  0  0  0  0  0
    5.5963    0.6224    1.4756 C   0  0  0  0  0  0  0  0  0  0  0  0
    5.0193    1.2583   -0.7825 C   0  0  0  0  0  0  0  0  0  0  0  0
    6.9509    0.7220    1.1577 C   0  0  0  0  0  0  0  0  0  0  0  0
    6.3738    1.3579   -1.1006 C   0  0  0  0  0  0  0  0  0  0  0  0
    7.3396    1.0898   -0.1304 C   0  0  0  0  0  0  0  0  0  0  0  0
   -3.9624    2.0079    1.1110 H   0  0  0  0  0  0  0  0  0  0  0  0
   -6.0006    1.7880    0.0256 H   0  0  0  0  0  0  0  0  0  0  0  0
   -6.3380    0.4295   -1.9072 H   0  0  0  0  0  0  0  0  0  0  0  0
   -3.6938    0.6166   -2.7483 H   0  0  0  0  0  0  0  0  0  0  0  0
   -4.6613    2.0549   -2.3808 H   0  0  0  0  0  0  0  0  0  0  0  0
   -1.7057    2.1059    1.0426 H   0  0  0  0  0  0  0  0  0  0  0  0
   -2.3816   -0.5250   -0.6410 H   0  0  0  0  0  0  0  0  0  0  0  0
   -1.2625   -1.5926    1.8481 H   0  0  0  0  0  0  0  0  0  0  0  0
    0.3083    2.9478   -0.9909 H   0  0  0  0  0  0  0  0  0  0  0  0
   -2.8529    4.2941    0.6391 H   0  0  0  0  0  0  0  0  0  0  0  0
   -1.5358    4.7880   -0.4320 H   0  0  0  0  0  0  0  0  0  0  0  0
   -1.2161    4.5256    1.2871 H   0  0  0  0  0  0  0  0  0  0  0  0
   -2.6649   -3.4330   -0.1818 H   0  0  0  0  0  0  0  0  0  0  0  0
   -1.7091   -3.9660    1.1924 H   0  0  0  0  0  0  0  0  0  0  0  0
    3.0648    1.0598    1.9114 H   0  0  0  0  0  0  0  0  0  0  0  0
    2.1267    1.4122   -0.9787 H   0  0  0  0  0  0  0  0  0  0  0  0
    2.5995    2.7438    0.0910 H   0  0  0  0  0  0  0  0  0  0  0  0
    2.6194   -3.2541    0.6385 H   0  0  0  0  0  0  0  0  0  0  0  0
    0.6008   -2.8641    1.4878 H   0  0  0  0  0  0  0  0  0  0  0  0
    2.2965   -0.9931    1.6451 H   0  0  0  0  0  0  0  0  0  0  0  0
   -3.3391   -2.7614    2.7370 H   0  0  0  0  0  0  0  0  0  0  0  0
   -4.0283   -4.0894    1.8108 H   0  0  0  0  0  0  0  0  0  0  0  0
   -4.3713   -2.4500    1.3102 H   0  0  0  0  0  0  0  0  0  0  0  0
    1.6266   -3.0393   -2.2493 H   0  0  0  0  0  0  0  0  0  0  0  0
    1.1761   -4.4201   -1.2386 H   0  0  0  0  0  0  0  0  0  0  0  0
    5.3068    0.3329    2.4823 H   0  0  0  0  0  0  0  0  0  0  0  0
    4.2958    1.4693   -1.5634 H   0  0  0  0  0  0  0  0  0  0  0  0
    7.7028    0.5126    1.9128 H   0  0  0  0  0  0  0  0  0  0  0  0
    6.6769    1.6429   -2.1038 H   0  0  0  0  0  0  0  0  0  0  0  0
    3.3704   -4.7887   -0.8395 H   0  0  0  0  0  0  0  0  0  0  0  0
    8.3942    1.1670   -0.3782 H   0  0  0  0  0  0  0  0  0  0  0  0
  1 15  1  0  0  0  0
  2 16  1  0  0  0  0
  3 18  2  0  0  0  0
  4 19  2  0  0  0  0
  5 24  2  0  0  0  0
  6 27  2  0  0  0  0
  7 30  2  0  0  0  0
  8 32  1  0  0  0  0
  8 67  1  0  0  0  0
  9 14  1  0  0  0  0
  9 17  1  0  0  0  0
  9 19  1  0  0  0  0
 10 18  1  0  0  0  0
 10 21  1  0  0  0  0
 10 44  1  0  0  0  0
 11 20  1  0  0  0  0
 11 27  1  0  0  0  0
 11 46  1  0  0  0  0
 12 24  1  0  0  0  0
 12 28  1  0  0  0  0
 12 56  1  0  0  0  0
 13 25  1  0  0  0  0
 13 30  1  0  0  0  0
 13 57  1  0  0  0  0
 14 15  1  0  0  0  0
 14 18  1  0  0  0  0
 14 38  1  0  0  0  0
 15 16  1  0  0  0  0
 15 39  1  0  0  0  0
 16 17  1  0  0  0  0
 16 40  1  0  0  0  0
 17 41  1  0  0  0  0
 17 42  1  0  0  0  0
 19 20  1  0  0  0  0
 20 22  1  0  0  0  0
 20 43  1  0  0  0  0
 21 23  1  0  0  0  0
 21 24  1  0  0  0  0
 21 45  1  0  0  0  0
 22 47  1  0  0  0  0
 22 48  1  0  0  0  0
 22 49  1  0  0  0  0
 23 29  1  0  0  0  0
 23 50  1  0  0  0  0
 23 51  1  0  0  0  0
 25 26  1  0  0  0  0
 25 31  1  0  0  0  0
 25 52  1  0  0  0  0
 26 27  1  0  0  0  0
 26 53  1  0  0  0  0
 26 54  1  0  0  0  0
 28 30  1  0  0  0  0
 28 32  1  0  0  0  0
 28 55  1  0  0  0  0
 29 58  1  0  0  0  0
 29 59  1  0  0  0  0
 29 60  1  0  0  0  0
 31 33  2  0  0  0  0
 31 34  1  0  0  0  0
 32 61  1  0  0  0  0
 32 62  1  0  0  0  0
 33 35  1  0  0  0  0
 33 63  1  0  0  0  0
 34 36  2  0  0  0  0
 34 64  1  0  0  0  0
 35 37  2  0  0  0  0
 35 65  1  0  0  0  0
 36 37  1  0  0  0  0
 36 66  1  0  0  0  0
 37 68  1  0  0  0  0
M  END
> <PUBCHEM_COMPOUND_CID>
145720578

> <PUBCHEM_CONFORMER_RMSD>
0.8

> <PUBCHEM_CONFORMER_DIVERSEORDER>
1
5
4
3
6
2

> <PUBCHEM_MMFF94_PARTIAL_CHARGES>
44
1 -0.29
10 -0.73
11 -0.73
12 -0.73
13 -0.73
14 0.36
15 0.29
16 0.29
17 0.3
18 0.57
19 0.57
2 -0.29
20 0.36
21 0.36
24 0.57
25 0.44
26 0.06
27 0.57
28 0.36
3 -0.57
30 0.57
31 -0.14
32 0.28
33 -0.15
34 -0.15
35 -0.15
36 -0.15
37 -0.15
4 -0.57
44 0.37
46 0.37
5 -0.57
56 0.37
57 0.37
6 -0.57
63 0.15
64 0.15
65 0.15
66 0.15
67 0.4
68 0.15
7 -0.57
8 -0.68
9 -0.66

> <PUBCHEM_EFFECTIVE_ROTOR_COUNT>
5.4

> <PUBCHEM_PHARMACOPHORE_FEATURES>
14
1 10 donor
1 11 donor
1 12 donor
1 13 donor
1 29 hydrophobe
1 3 acceptor
1 4 acceptor
1 5 acceptor
1 6 acceptor
1 7 acceptor
1 8 acceptor
1 8 donor
5 9 14 15 16 17 rings
6 31 33 34 35 36 37 rings

> <PUBCHEM_HEAVY_ATOM_COUNT>
37

> <PUBCHEM_ATOM_DEF_STEREO_COUNT>
7

> <PUBCHEM_ATOM_UDEF_STEREO_COUNT>
0

> <PUBCHEM_BOND_DEF_STEREO_COUNT>
0

> <PUBCHEM_BOND_UDEF_STEREO_COUNT>
0

> <PUBCHEM_ISOTOPIC_ATOM_COUNT>
0

> <PUBCHEM_COMPONENT_COUNT>
1

> <PUBCHEM_CACTVS_TAUTO_COUNT>
-1

> <PUBCHEM_CONFORMER_ID>
08AF850200000001

> <PUBCHEM_MMFF94_ENERGY>
101.546

> <PUBCHEM_FEATURE_SELFOVERLAP>
71.056

> <PUBCHEM_SHAPE_FINGERPRINT>
10290309 65 18334296418495524651
10675989 125 17179946446210088148
11135926 11 18343014471982270668
11136131 41 18265884784131451922
11488393 25 18127414454350187170
11513181 2 18058452006417691479
12035758 1 18188507830294454737
12422481 6 18040712572373596070
12788726 201 18340476773186396697
13111901 137 18338813251238186198
13402501 40 18410853269721390193
13811026 1 18409165477082444439
14904385 31 18410014325248870128
18608769 82 18336833099711600115
20642791 35 17977663105346010497
20721686 56 18410014312622580578
20764821 26 18265617778302696277
21033648 144 18341616992762026279
21033648 29 17968101859404365503
3380486 145 18336562598333886115
3737641 26 18200313212984077157
4093350 32 17202778003028824207
508706 21 18335138717458477655
5265222 85 18339082713292271884
59755656 215 18410853269710671600

> <PUBCHEM_SHAPE_MULTIPOLES>
705.06
15.27
4.38
1.79
14.36
2.14
0.17
-4.23
-0.39
-0.74
0.84
-1.13
0.3
1.98

> <PUBCHEM_SHAPE_SELFOVERLAP>
1451.294

> <PUBCHEM_SHAPE_VOLUME>
399.3

> <PUBCHEM_COORDINATE_TYPE>
2
5
10

$$$$
