145720577
  -OEChem-08242509352D

 69 71  0     1  0  0  0  0  0999 V2000
    7.7361    2.8548    0.0000 Cl  0  0  0  0  0  0  0  0  0  0  0  0
    7.7331   -0.0955    0.0000 O   0  0  0  0  0  0  0  0  0  0  0  0
    9.4872   -0.1359    0.0000 O   0  0  0  0  0  0  0  0  0  0  0  0
   10.1337   -2.1064    0.0000 O   0  0  0  0  0  0  0  0  0  0  0  0
    5.1350    3.4044    0.0000 O   0  0  0  0  0  0  0  0  0  0  0  0
    7.4919   -0.9275    0.0000 O   0  0  0  0  0  0  0  0  0  0  0  0
    5.8421   -0.3027    0.0000 O   0  0  0  0  0  0  0  0  0  0  0  0
    2.5369    0.9044    0.0000 O   0  0  0  0  0  0  0  0  0  0  0  0
    8.5991    0.4044    0.0000 N   0  0  0  0  0  0  0  0  0  0  0  0
    6.0010    0.9044    0.0000 N   0  0  0  0  0  0  0  0  0  0  0  0
    7.4919   -1.9275    0.0000 N   0  0  0  0  0  0  0  0  0  0  0  0
    4.2690    1.9044    0.0000 N   0  0  0  0  0  0  0  0  0  0  0  0
    4.6350   -0.4616    0.0000 N   0  0  0  0  0  0  0  0  0  0  0  0
    7.7331    0.9044    0.0000 C   0  0  1  0  0  0  0  0  0  0  0  0
    7.9423    1.8763    0.0000 C   0  0  1  0  0  0  0  0  0  0  0  0
    8.9310    1.9793    0.0000 C   0  0  0  0  0  0  0  0  0  0  0  0
    9.3361    1.0715    0.0000 C   0  0  0  0  0  0  0  0  0  0  0  0
    6.8671    0.4044    0.0000 C   0  0  0  0  0  0  0  0  0  0  0  0
    8.5991   -0.5956    0.0000 C   0  0  0  0  0  0  0  0  0  0  0  0
    8.4578   -1.6687    0.0000 C   0  0  2  0  0  0  0  0  0  0  0  0
    6.0010    1.9044    0.0000 C   0  0  1  0  0  0  0  0  0  0  0  0
    9.1694   -2.3713    0.0000 C   0  0  0  0  0  0  0  0  0  0  0  0
    6.5010    2.7705    0.0000 C   0  0  0  0  0  0  0  0  0  0  0  0
    5.1350    2.4044    0.0000 C   0  0  0  0  0  0  0  0  0  0  0  0
    4.8938   -1.4275    0.0000 C   0  0  2  0  0  0  0  0  0  0  0  0
    5.7599   -1.9275    0.0000 C   0  0  0  0  0  0  0  0  0  0  0  0
    6.6259   -1.4275    0.0000 C   0  0  0  0  0  0  0  0  0  0  0  0
    4.2690    0.9044    0.0000 C   0  0  2  0  0  0  0  0  0  0  0  0
    6.0010    3.6365    0.0000 C   0  0  0  0  0  0  0  0  0  0  0  0
    5.1350    0.4044    0.0000 C   0  0  0  0  0  0  0  0  0  0  0  0
    4.1005   -2.0363    0.0000 C   0  0  0  0  0  0  0  0  0  0  0  0
    3.4030    0.4044    0.0000 C   0  0  0  0  0  0  0  0  0  0  0  0
    3.1766   -1.6536    0.0000 C   0  0  0  0  0  0  0  0  0  0  0  0
    4.2310   -3.0277    0.0000 C   0  0  0  0  0  0  0  0  0  0  0  0
    2.3832   -2.2624    0.0000 C   0  0  0  0  0  0  0  0  0  0  0  0
    3.4377   -3.6365    0.0000 C   0  0  0  0  0  0  0  0  0  0  0  0
    2.5138   -3.2538    0.0000 C   0  0  0  0  0  0  0  0  0  0  0  0
    7.0461    1.4049    0.0000 H   0  0  0  0  0  0  0  0  0  0  0  0
    7.3223    1.8776    0.0000 H   0  0  0  0  0  0  0  0  0  0  0  0
    9.5206    2.1711    0.0000 H   0  0  0  0  0  0  0  0  0  0  0  0
    8.8023    2.5858    0.0000 H   0  0  0  0  0  0  0  0  0  0  0  0
    9.7016    0.5707    0.0000 H   0  0  0  0  0  0  0  0  0  0  0  0
    9.8726    1.3823    0.0000 H   0  0  0  0  0  0  0  0  0  0  0  0
    8.2993   -2.2681    0.0000 H   0  0  0  0  0  0  0  0  0  0  0  0
    5.4642    1.2146    0.0000 H   0  0  0  0  0  0  0  0  0  0  0  0
    6.5999    1.7440    0.0000 H   0  0  0  0  0  0  0  0  0  0  0  0
    8.6638   -2.7302    0.0000 H   0  0  0  0  0  0  0  0  0  0  0  0
    9.4349   -2.9316    0.0000 H   0  0  0  0  0  0  0  0  0  0  0  0
    7.4110   -2.5422    0.0000 H   0  0  0  0  0  0  0  0  0  0  0  0
    6.9760    2.3719    0.0000 H   0  0  0  0  0  0  0  0  0  0  0  0
    6.9760    3.1690    0.0000 H   0  0  0  0  0  0  0  0  0  0  0  0
    4.3067   -1.2282    0.0000 H   0  0  0  0  0  0  0  0  0  0  0  0
    5.3613   -2.4025    0.0000 H   0  0  0  0  0  0  0  0  0  0  0  0
    6.1584   -2.4025    0.0000 H   0  0  0  0  0  0  0  0  0  0  0  0
    3.7321    1.2144    0.0000 H   0  0  0  0  0  0  0  0  0  0  0  0
    3.7321    2.2144    0.0000 H   0  0  0  0  0  0  0  0  0  0  0  0
    4.0203   -0.3807    0.0000 H   0  0  0  0  0  0  0  0  0  0  0  0
    6.5380    3.9465    0.0000 H   0  0  0  0  0  0  0  0  0  0  0  0
    5.6910    4.1734    0.0000 H   0  0  0  0  0  0  0  0  0  0  0  0
    5.4641    3.3265    0.0000 H   0  0  0  0  0  0  0  0  0  0  0  0
    3.0044   -0.0705    0.0000 H   0  0  0  0  0  0  0  0  0  0  0  0
    3.8015   -0.0705    0.0000 H   0  0  0  0  0  0  0  0  0  0  0  0
   10.5748   -2.5421    0.0000 H   0  0  0  0  0  0  0  0  0  0  0  0
    3.0957   -1.0389    0.0000 H   0  0  0  0  0  0  0  0  0  0  0  0
    4.8038   -3.2650    0.0000 H   0  0  0  0  0  0  0  0  0  0  0  0
    1.8104   -2.0251    0.0000 H   0  0  0  0  0  0  0  0  0  0  0  0
    3.5186   -4.2512    0.0000 H   0  0  0  0  0  0  0  0  0  0  0  0
    2.0000    0.5944    0.0000 H   0  0  0  0  0  0  0  0  0  0  0  0
    2.0219   -3.6312    0.0000 H   0  0  0  0  0  0  0  0  0  0  0  0
 15  1  1  6  0  0  0
  2 18  2  0  0  0  0
  3 19  2  0  0  0  0
  4 22  1  0  0  0  0
  4 63  1  0  0  0  0
  5 24  2  0  0  0  0
  6 27  2  0  0  0  0
  7 30  2  0  0  0  0
  8 32  1  0  0  0  0
  8 68  1  0  0  0  0
  9 14  1  0  0  0  0
  9 17  1  0  0  0  0
  9 19  1  0  0  0  0
 10 18  1  0  0  0  0
 10 21  1  0  0  0  0
 10 45  1  0  0  0  0
 11 20  1  0  0  0  0
 11 27  1  0  0  0  0
 11 49  1  0  0  0  0
 12 24  1  0  0  0  0
 12 28  1  0  0  0  0
 12 56  1  0  0  0  0
 13 25  1  0  0  0  0
 13 30  1  0  0  0  0
 13 57  1  0  0  0  0
 14 15  1  0  0  0  0
 14 18  1  0  0  0  0
 14 38  1  1  0  0  0
 15 16  1  0  0  0  0
 15 39  1  0  0  0  0
 16 17  1  0  0  0  0
 16 40  1  0  0  0  0
 16 41  1  0  0  0  0
 17 42  1  0  0  0  0
 17 43  1  0  0  0  0
 19 20  1  0  0  0  0
 20 22  1  6  0  0  0
 20 44  1  0  0  0  0
 21 23  1  6  0  0  0
 21 24  1  0  0  0  0
 21 46  1  0  0  0  0
 22 47  1  0  0  0  0
 22 48  1  0  0  0  0
 23 29  1  0  0  0  0
 23 50  1  0  0  0  0
 23 51  1  0  0  0  0
 25 26  1  0  0  0  0
 25 31  1  6  0  0  0
 25 52  1  0  0  0  0
 26 27  1  0  0  0  0
 26 53  1  0  0  0  0
 26 54  1  0  0  0  0
 28 30  1  0  0  0  0
 28 32  1  6  0  0  0
 28 55  1  0  0  0  0
 29 58  1  0  0  0  0
 29 59  1  0  0  0  0
 29 60  1  0  0  0  0
 31 33  2  0  0  0  0
 31 34  1  0  0  0  0
 32 61  1  0  0  0  0
 32 62  1  0  0  0  0
 33 35  1  0  0  0  0
 33 64  1  0  0  0  0
 34 36  2  0  0  0  0
 34 65  1  0  0  0  0
 35 37  2  0  0  0  0
 35 66  1  0  0  0  0
 36 37  1  0  0  0  0
 36 67  1  0  0  0  0
 37 69  1  0  0  0  0
M  END
> <PUBCHEM_COMPOUND_CID>
145720577

> <PUBCHEM_COMPOUND_CANONICALIZED>
1

> <PUBCHEM_CACTVS_COMPLEXITY>
868

> <PUBCHEM_CACTVS_HBOND_ACCEPTOR>
7

> <PUBCHEM_CACTVS_HBOND_DONOR>
6

> <PUBCHEM_CACTVS_ROTATABLE_BOND>
4

> <PUBCHEM_CACTVS_SUBSKEYS>
AAADcfB7uAAEAAAAAAAAAAAAAAAAAWAAAAAwAAAAAAAAAAABAAAAHgIQCAAADCvhmEYyAIPAAgCIAiFSEACCAAAgAAAIiIGIBogKcD6A0THUYAhitgCYiAcYiYCOAAAAAAAAAAAAAAAAAAAAAAAAAAAAAA==

> <PUBCHEM_IUPAC_OPENEYE_NAME>
(3S,7R,10S,13S,16R,17R)-17-chloro-13-ethyl-3,10-bis(hydroxymethyl)-7-phenyl-1,4,8,11,14-pentazabicyclo[14.3.0]nonadecane-2,5,9,12,15-pentone

> <PUBCHEM_IUPAC_CAS_NAME>
(3S,7R,10S,13S,16R,17R)-17-chloro-13-ethyl-3,10-bis(hydroxymethyl)-7-phenyl-1,4,8,11,14-pentazabicyclo[14.3.0]nonadecane-2,5,9,12,15-pentone

> <PUBCHEM_IUPAC_NAME_MARKUP>
(3<I>S</I>,7<I>R</I>,10<I>S</I>,13<I>S</I>,16<I>R</I>,17<I>R</I>)-17-chloro-13-ethyl-3,10-bis(hydroxymethyl)-7-phenyl-1,4,8,11,14-pentazabicyclo[14.3.0]nonadecane-2,5,9,12,15-pentone

> <PUBCHEM_IUPAC_NAME>
(3S,7R,10S,13S,16R,17R)-17-chloro-13-ethyl-3,10-bis(hydroxymethyl)-7-phenyl-1,4,8,11,14-pentazabicyclo[14.3.0]nonadecane-2,5,9,12,15-pentone

> <PUBCHEM_IUPAC_SYSTEMATIC_NAME>
(3S,7R,10S,13S,16R,17R)-17-chloranyl-13-ethyl-3,10-bis(hydroxymethyl)-7-phenyl-1,4,8,11,14-pentazabicyclo[14.3.0]nonadecane-2,5,9,12,15-pentone

> <PUBCHEM_IUPAC_TRADITIONAL_NAME>
(3S,7R,10S,13S,16R,17R)-17-chloro-13-ethyl-3,10-dimethylol-7-phenyl-1,4,8,11,14-pentazabicyclo[14.3.0]nonadecane-2,5,9,12,15-pentone

> <PUBCHEM_IUPAC_INCHI>
InChI=1S/C24H32ClN5O7/c1-2-15-21(34)29-17(11-31)22(35)28-16(13-6-4-3-5-7-13)10-19(33)26-18(12-32)24(37)30-9-8-14(25)20(30)23(36)27-15/h3-7,14-18,20,31-32H,2,8-12H2,1H3,(H,26,33)(H,27,36)(H,28,35)(H,29,34)/t14-,15+,16-,17+,18+,20+/m1/s1

> <PUBCHEM_IUPAC_INCHIKEY>
TWLLLEZBOHPXTA-GZKCFLEVSA-N

> <PUBCHEM_XLOGP3_AA>
-0.1

> <PUBCHEM_EXACT_MASS>
537.1990261

> <PUBCHEM_MOLECULAR_FORMULA>
C24H32ClN5O7

> <PUBCHEM_MOLECULAR_WEIGHT>
538.0

> <PUBCHEM_SMILES>
CC[C@H]1C(=O)N[C@H](C(=O)N[C@H](CC(=O)N[C@H](C(=O)N2CC[C@H]([C@H]2C(=O)N1)Cl)CO)C3=CC=CC=C3)CO

> <PUBCHEM_CONNECTIVITY_SMILES>
CCC1C(=O)NC(C(=O)NC(CC(=O)NC(C(=O)N2CCC(C2C(=O)N1)Cl)CO)C3=CC=CC=C3)CO

> <PUBCHEM_CACTVS_TPSA>
177

> <PUBCHEM_MONOISOTOPIC_WEIGHT>
537.1990261

> <PUBCHEM_TOTAL_CHARGE>
0

> <PUBCHEM_HEAVY_ATOM_COUNT>
37

> <PUBCHEM_ATOM_DEF_STEREO_COUNT>
6

> <PUBCHEM_ATOM_UDEF_STEREO_COUNT>
0

> <PUBCHEM_BOND_DEF_STEREO_COUNT>
0

> <PUBCHEM_BOND_UDEF_STEREO_COUNT>
0

> <PUBCHEM_ISOTOPIC_ATOM_COUNT>
0

> <PUBCHEM_COMPONENT_COUNT>
1

> <PUBCHEM_CACTVS_TAUTO_COUNT>
-1

> <PUBCHEM_COORDINATE_TYPE>
1
5
255

> <PUBCHEM_BONDANNOTATIONS>
15  1  6
14  38  5
20  22  6
21  23  6
25  31  6
28  32  6
31  33  8
31  34  8
33  35  8
34  36  8
35  37  8
36  37  8

$$$$
