57339252
  -OEChem-08292504432D

111111  0     1  0  0  0  0  0999 V2000
    8.9282   -1.7500    0.0000 O   0  0  0  0  0  0  0  0  0  0  0  0
    3.7321   -1.7500    0.0000 O   0  0  0  0  0  0  0  0  0  0  0  0
    7.1962    1.2500    0.0000 O   0  0  0  0  0  0  0  0  0  0  0  0
    7.1962   -0.7500    0.0000 O   0  0  0  0  0  0  0  0  0  0  0  0
    8.9282    2.2500    0.0000 O   0  0  0  0  0  0  0  0  0  0  0  0
    5.4641   -0.7500    0.0000 O   0  0  0  0  0  0  0  0  0  0  0  0
    4.5981   -3.2500    0.0000 O   0  0  0  0  0  0  0  0  0  0  0  0
    8.0622   -0.2500    0.0000 O   0  0  0  0  0  0  0  0  0  0  0  0
    6.3301   -0.2500    0.0000 O   0  0  0  0  0  0  0  0  0  0  0  0
    6.3301   -2.2500    0.0000 N   0  0  0  0  0  0  0  0  0  0  0  0
    9.7942    0.7500    0.0000 N   0  0  0  0  0  0  0  0  0  0  0  0
    4.5981    0.7500    0.0000 N   0  0  0  0  0  0  0  0  0  0  0  0
    5.4641   -1.7500    0.0000 C   0  0  1  0  0  0  0  0  0  0  0  0
    9.7942   -0.2500    0.0000 C   0  0  1  0  0  0  0  0  0  0  0  0
    5.4641    1.2500    0.0000 C   0  0  1  0  0  0  0  0  0  0  0  0
    4.8213   -0.9840    0.0000 C   0  0  2  0  0  0  0  0  0  0  0  0
   10.6603   -0.7500    0.0000 C   0  0  2  0  0  0  0  0  0  0  0  0
    5.4641    2.2500    0.0000 C   0  0  2  0  0  0  0  0  0  0  0  0
    8.0622   -2.2500    0.0000 C   0  0  2  0  0  0  0  0  0  0  0  0
    8.0622    0.7500    0.0000 C   0  0  2  0  0  0  0  0  0  0  0  0
    3.7321   -0.7500    0.0000 C   0  0  2  0  0  0  0  0  0  0  0  0
    3.8816   -1.3259    0.0000 C   0  0  0  0  0  0  0  0  0  0  0  0
   11.5263   -0.2500    0.0000 C   0  0  0  0  0  0  0  0  0  0  0  0
    4.5981    2.7500    0.0000 C   0  0  0  0  0  0  0  0  0  0  0  0
    8.0622   -3.2500    0.0000 C   0  0  0  0  0  0  0  0  0  0  0  0
    8.7050   -0.0160    0.0000 C   0  0  0  0  0  0  0  0  0  0  0  0
    2.8660   -0.2500    0.0000 C   0  0  0  0  0  0  0  0  0  0  0  0
    7.1962   -1.7500    0.0000 C   0  0  0  0  0  0  0  0  0  0  0  0
    8.9282    1.2500    0.0000 C   0  0  0  0  0  0  0  0  0  0  0  0
    4.5981   -0.2500    0.0000 C   0  0  0  0  0  0  0  0  0  0  0  0
    4.5981   -2.2500    0.0000 C   0  0  0  0  0  0  0  0  0  0  0  0
    8.9282   -0.7500    0.0000 C   0  0  0  0  0  0  0  0  0  0  0  0
    6.3301    0.7500    0.0000 C   0  0  0  0  0  0  0  0  0  0  0  0
    5.1633   -0.0443    0.0000 C   0  0  0  0  0  0  0  0  0  0  0  0
   10.6603   -1.7500    0.0000 C   0  0  0  0  0  0  0  0  0  0  0  0
    6.3301    2.7500    0.0000 C   0  0  0  0  0  0  0  0  0  0  0  0
    6.3301   -3.2500    0.0000 C   0  0  0  0  0  0  0  0  0  0  0  0
   10.6603    1.2500    0.0000 C   0  0  0  0  0  0  0  0  0  0  0  0
    3.7321    1.2500    0.0000 C   0  0  0  0  0  0  0  0  0  0  0  0
    3.2389   -2.0920    0.0000 C   0  0  0  0  0  0  0  0  0  0  0  0
   12.3923   -0.7500    0.0000 C   0  0  0  0  0  0  0  0  0  0  0  0
    4.5981    3.7500    0.0000 C   0  0  0  0  0  0  0  0  0  0  0  0
    8.9282   -3.7500    0.0000 C   0  0  0  0  0  0  0  0  0  0  0  0
    7.1962   -3.7500    0.0000 C   0  0  0  0  0  0  0  0  0  0  0  0
    8.3633   -0.9557    0.0000 C   0  0  0  0  0  0  0  0  0  0  0  0
    9.7857    0.3776    0.0000 C   0  0  0  0  0  0  0  0  0  0  0  0
    2.0000   -0.7500    0.0000 C   0  0  0  0  0  0  0  0  0  0  0  0
    2.8660    0.7500    0.0000 C   0  0  0  0  0  0  0  0  0  0  0  0
    6.0105   -1.0989    0.0000 H   0  0  0  0  0  0  0  0  0  0  0  0
   10.5304    0.1750    0.0000 H   0  0  0  0  0  0  0  0  0  0  0  0
    4.7280    1.6750    0.0000 H   0  0  0  0  0  0  0  0  0  0  0  0
    4.3829   -0.5455    0.0000 H   0  0  0  0  0  0  0  0  0  0  0  0
   11.1972   -1.0600    0.0000 H   0  0  0  0  0  0  0  0  0  0  0  0
    5.4641    2.8700    0.0000 H   0  0  0  0  0  0  0  0  0  0  0  0
    8.5991   -2.5600    0.0000 H   0  0  0  0  0  0  0  0  0  0  0  0
    7.6637    0.2750    0.0000 H   0  0  0  0  0  0  0  0  0  0  0  0
    3.1951   -1.0600    0.0000 H   0  0  0  0  0  0  0  0  0  0  0  0
    3.8816   -0.7059    0.0000 H   0  0  0  0  0  0  0  0  0  0  0  0
    4.2372   -1.8338    0.0000 H   0  0  0  0  0  0  0  0  0  0  0  0
   11.9248    0.2249    0.0000 H   0  0  0  0  0  0  0  0  0  0  0  0
   11.1278    0.2249    0.0000 H   0  0  0  0  0  0  0  0  0  0  0  0
    3.9875    2.8577    0.0000 H   0  0  0  0  0  0  0  0  0  0  0  0
    4.3860    2.1674    0.0000 H   0  0  0  0  0  0  0  0  0  0  0  0
    8.0622   -3.8700    0.0000 H   0  0  0  0  0  0  0  0  0  0  0  0
    9.1436   -0.4543    0.0000 H   0  0  0  0  0  0  0  0  0  0  0  0
    3.4030    0.0600    0.0000 H   0  0  0  0  0  0  0  0  0  0  0  0
    5.7459   -0.2563    0.0000 H   0  0  0  0  0  0  0  0  0  0  0  0
    5.3754    0.5383    0.0000 H   0  0  0  0  0  0  0  0  0  0  0  0
    4.5807    0.1678    0.0000 H   0  0  0  0  0  0  0  0  0  0  0  0
   10.0403   -1.7500    0.0000 H   0  0  0  0  0  0  0  0  0  0  0  0
   10.6603   -2.3700    0.0000 H   0  0  0  0  0  0  0  0  0  0  0  0
   11.2803   -1.7500    0.0000 H   0  0  0  0  0  0  0  0  0  0  0  0
    6.6401    2.2131    0.0000 H   0  0  0  0  0  0  0  0  0  0  0  0
    6.8671    3.0600    0.0000 H   0  0  0  0  0  0  0  0  0  0  0  0
    6.0201    3.2869    0.0000 H   0  0  0  0  0  0  0  0  0  0  0  0
    5.7101   -3.2500    0.0000 H   0  0  0  0  0  0  0  0  0  0  0  0
    6.3301   -3.8700    0.0000 H   0  0  0  0  0  0  0  0  0  0  0  0
    6.9501   -3.2500    0.0000 H   0  0  0  0  0  0  0  0  0  0  0  0
   10.9703    0.7131    0.0000 H   0  0  0  0  0  0  0  0  0  0  0  0
   11.1972    1.5600    0.0000 H   0  0  0  0  0  0  0  0  0  0  0  0
   10.3503    1.7869    0.0000 H   0  0  0  0  0  0  0  0  0  0  0  0
    4.0421    1.7869    0.0000 H   0  0  0  0  0  0  0  0  0  0  0  0
    3.1951    1.5600    0.0000 H   0  0  0  0  0  0  0  0  0  0  0  0
    3.4221    0.7131    0.0000 H   0  0  0  0  0  0  0  0  0  0  0  0
    2.7639   -1.6935    0.0000 H   0  0  0  0  0  0  0  0  0  0  0  0
    2.8404   -2.5670    0.0000 H   0  0  0  0  0  0  0  0  0  0  0  0
    3.7138   -2.4905    0.0000 H   0  0  0  0  0  0  0  0  0  0  0  0
   12.0823   -1.2869    0.0000 H   0  0  0  0  0  0  0  0  0  0  0  0
   12.9292   -1.0600    0.0000 H   0  0  0  0  0  0  0  0  0  0  0  0
   12.7023   -0.2131    0.0000 H   0  0  0  0  0  0  0  0  0  0  0  0
    5.2181    3.7500    0.0000 H   0  0  0  0  0  0  0  0  0  0  0  0
    4.5981    4.3700    0.0000 H   0  0  0  0  0  0  0  0  0  0  0  0
    3.9781    3.7500    0.0000 H   0  0  0  0  0  0  0  0  0  0  0  0
    8.6182   -4.2869    0.0000 H   0  0  0  0  0  0  0  0  0  0  0  0
    9.4651   -4.0600    0.0000 H   0  0  0  0  0  0  0  0  0  0  0  0
    9.2382   -3.2131    0.0000 H   0  0  0  0  0  0  0  0  0  0  0  0
    6.8862   -3.2131    0.0000 H   0  0  0  0  0  0  0  0  0  0  0  0
    6.6592   -4.0600    0.0000 H   0  0  0  0  0  0  0  0  0  0  0  0
    7.5062   -4.2869    0.0000 H   0  0  0  0  0  0  0  0  0  0  0  0
    7.7806   -0.7438    0.0000 H   0  0  0  0  0  0  0  0  0  0  0  0
    8.1514   -1.5383    0.0000 H   0  0  0  0  0  0  0  0  0  0  0  0
    8.9460   -1.1676    0.0000 H   0  0  0  0  0  0  0  0  0  0  0  0
    9.9979   -0.2050    0.0000 H   0  0  0  0  0  0  0  0  0  0  0  0
   10.3682    0.5898    0.0000 H   0  0  0  0  0  0  0  0  0  0  0  0
    9.5735    0.9602    0.0000 H   0  0  0  0  0  0  0  0  0  0  0  0
    1.6900   -0.2131    0.0000 H   0  0  0  0  0  0  0  0  0  0  0  0
    1.4631   -1.0600    0.0000 H   0  0  0  0  0  0  0  0  0  0  0  0
    2.3100   -1.2869    0.0000 H   0  0  0  0  0  0  0  0  0  0  0  0
    3.4860    0.7500    0.0000 H   0  0  0  0  0  0  0  0  0  0  0  0
    2.8660    1.3700    0.0000 H   0  0  0  0  0  0  0  0  0  0  0  0
    2.2460    0.7500    0.0000 H   0  0  0  0  0  0  0  0  0  0  0  0
  1 19  1  0  0  0  0
  1 32  1  0  0  0  0
  2 21  1  0  0  0  0
  2 31  1  0  0  0  0
  3 20  1  0  0  0  0
  3 33  1  0  0  0  0
  4 28  2  0  0  0  0
  5 29  2  0  0  0  0
  6 30  2  0  0  0  0
  7 31  2  0  0  0  0
  8 32  2  0  0  0  0
  9 33  2  0  0  0  0
 10 13  1  0  0  0  0
 10 28  1  0  0  0  0
 10 37  1  0  0  0  0
 11 14  1  0  0  0  0
 11 29  1  0  0  0  0
 11 38  1  0  0  0  0
 12 15  1  0  0  0  0
 12 30  1  0  0  0  0
 12 39  1  0  0  0  0
 13 16  1  0  0  0  0
 13 31  1  0  0  0  0
 13 49  1  1  0  0  0
 14 17  1  0  0  0  0
 14 32  1  0  0  0  0
 14 50  1  6  0  0  0
 15 18  1  0  0  0  0
 15 33  1  0  0  0  0
 15 51  1  6  0  0  0
 16 22  1  0  0  0  0
 16 34  1  6  0  0  0
 16 52  1  0  0  0  0
 17 23  1  0  0  0  0
 17 35  1  6  0  0  0
 17 53  1  0  0  0  0
 18 24  1  0  0  0  0
 18 36  1  6  0  0  0
 18 54  1  0  0  0  0
 19 25  1  6  0  0  0
 19 28  1  0  0  0  0
 19 55  1  0  0  0  0
 20 26  1  1  0  0  0
 20 29  1  0  0  0  0
 20 56  1  0  0  0  0
 21 27  1  6  0  0  0
 21 30  1  0  0  0  0
 21 57  1  0  0  0  0
 22 40  1  0  0  0  0
 22 58  1  0  0  0  0
 22 59  1  0  0  0  0
 23 41  1  0  0  0  0
 23 60  1  0  0  0  0
 23 61  1  0  0  0  0
 24 42  1  0  0  0  0
 24 62  1  0  0  0  0
 24 63  1  0  0  0  0
 25 43  1  0  0  0  0
 25 44  1  0  0  0  0
 25 64  1  0  0  0  0
 26 45  1  0  0  0  0
 26 46  1  0  0  0  0
 26 65  1  0  0  0  0
 27 47  1  0  0  0  0
 27 48  1  0  0  0  0
 27 66  1  0  0  0  0
 34 67  1  0  0  0  0
 34 68  1  0  0  0  0
 34 69  1  0  0  0  0
 35 70  1  0  0  0  0
 35 71  1  0  0  0  0
 35 72  1  0  0  0  0
 36 73  1  0  0  0  0
 36 74  1  0  0  0  0
 36 75  1  0  0  0  0
 37 76  1  0  0  0  0
 37 77  1  0  0  0  0
 37 78  1  0  0  0  0
 38 79  1  0  0  0  0
 38 80  1  0  0  0  0
 38 81  1  0  0  0  0
 39 82  1  0  0  0  0
 39 83  1  0  0  0  0
 39 84  1  0  0  0  0
 40 85  1  0  0  0  0
 40 86  1  0  0  0  0
 40 87  1  0  0  0  0
 41 88  1  0  0  0  0
 41 89  1  0  0  0  0
 41 90  1  0  0  0  0
 42 91  1  0  0  0  0
 42 92  1  0  0  0  0
 42 93  1  0  0  0  0
 43 94  1  0  0  0  0
 43 95  1  0  0  0  0
 43 96  1  0  0  0  0
 44 97  1  0  0  0  0
 44 98  1  0  0  0  0
 44 99  1  0  0  0  0
 45100  1  0  0  0  0
 45101  1  0  0  0  0
 45102  1  0  0  0  0
 46103  1  0  0  0  0
 46104  1  0  0  0  0
 46105  1  0  0  0  0
 47106  1  0  0  0  0
 47107  1  0  0  0  0
 47108  1  0  0  0  0
 48109  1  0  0  0  0
 48110  1  0  0  0  0
 48111  1  0  0  0  0
M  END
> <PUBCHEM_COMPOUND_CID>
57339252

> <PUBCHEM_COMPOUND_CANONICALIZED>
1

> <PUBCHEM_CACTVS_COMPLEXITY>
1000

> <PUBCHEM_CACTVS_HBOND_ACCEPTOR>
9

> <PUBCHEM_CACTVS_HBOND_DONOR>
0

> <PUBCHEM_CACTVS_ROTATABLE_BOND>
9

> <PUBCHEM_CACTVS_SUBSKEYS>
AAADcfB/PAAAAAAAAAAAAAAAAAAAAAAAAAAAAAAAAAAAAAAAAAAAHgAAAAAADTzhgAYCCAMABAAIAAGQGAIAAAAAAAAAAAHIAAACABIAgCQHAAAEBgCQAACIAAAKAAAAAAAAAAAAAAAAAAAAAAAAAAAAAA==

> <PUBCHEM_IUPAC_OPENEYE_NAME>
(3S,6R,9S,12R,15S,18R)-6,12,18-triisopropyl-4,10,16-trimethyl-3,9,15-tris[(1S)-1-methylpropyl]-1,7,13-trioxa-4,10,16-triazacyclooctadecane-2,5,8,11,14,17-hexone

> <PUBCHEM_IUPAC_CAS_NAME>
(3S,6R,9S,12R,15S,18R)-3,9,15-tris[(2S)-butan-2-yl]-4,10,16-trimethyl-6,12,18-tri(propan-2-yl)-1,7,13-trioxa-4,10,16-triazacyclooctadecane-2,5,8,11,14,17-hexone

> <PUBCHEM_IUPAC_NAME_MARKUP>
(3<I>S</I>,6<I>R</I>,9<I>S</I>,12<I>R</I>,15<I>S</I>,18<I>R</I>)-3,9,15-tris[(2<I>S</I>)-butan-2-yl]-4,10,16-trimethyl-6,12,18-tri(propan-2-yl)-1,7,13-trioxa-4,10,16-triazacyclooctadecane-2,5,8,11,14,17-hexone

> <PUBCHEM_IUPAC_NAME>
(3S,6R,9S,12R,15S,18R)-3,9,15-tris[(2S)-butan-2-yl]-4,10,16-trimethyl-6,12,18-tri(propan-2-yl)-1,7,13-trioxa-4,10,16-triazacyclooctadecane-2,5,8,11,14,17-hexone

> <PUBCHEM_IUPAC_SYSTEMATIC_NAME>
(3S,6R,9S,12R,15S,18R)-3,9,15-tris[(2S)-butan-2-yl]-4,10,16-trimethyl-6,12,18-tri(propan-2-yl)-1,7,13-trioxa-4,10,16-triazacyclooctadecane-2,5,8,11,14,17-hexone

> <PUBCHEM_IUPAC_TRADITIONAL_NAME>
(3S,6R,9S,12R,15S,18R)-6,12,18-triisopropyl-4,10,16-trimethyl-3,9,15-tris[(1S)-1-methylpropyl]-1,7,13-trioxa-4,10,16-triazacyclooctadecane-2,5,8,11,14,17-triquinone

> <PUBCHEM_IUPAC_INCHI>
InChI=1S/C36H63N3O9/c1-16-22(10)25-34(43)46-29(20(6)7)32(41)38(14)27(24(12)18-3)36(45)48-30(21(8)9)33(42)39(15)26(23(11)17-2)35(44)47-28(19(4)5)31(40)37(25)13/h19-30H,16-18H2,1-15H3/t22-,23-,24-,25-,26-,27-,28+,29+,30+/m0/s1

> <PUBCHEM_IUPAC_INCHIKEY>
TWHBYJSVDCWICV-BHZTXFQCSA-N

> <PUBCHEM_XLOGP3_AA>
7.6

> <PUBCHEM_EXACT_MASS>
681.45643060

> <PUBCHEM_MOLECULAR_FORMULA>
C36H63N3O9

> <PUBCHEM_MOLECULAR_WEIGHT>
681.9

> <PUBCHEM_SMILES>
CC[C@H](C)[C@H]1C(=O)O[C@@H](C(=O)N([C@H](C(=O)O[C@@H](C(=O)N([C@H](C(=O)O[C@@H](C(=O)N1C)C(C)C)[C@@H](C)CC)C)C(C)C)[C@@H](C)CC)C)C(C)C

> <PUBCHEM_CONNECTIVITY_SMILES>
CCC(C)C1C(=O)OC(C(=O)N(C(C(=O)OC(C(=O)N(C(C(=O)OC(C(=O)N1C)C(C)C)C(C)CC)C)C(C)C)C(C)CC)C)C(C)C

> <PUBCHEM_CACTVS_TPSA>
140

> <PUBCHEM_MONOISOTOPIC_WEIGHT>
681.45643060

> <PUBCHEM_TOTAL_CHARGE>
0

> <PUBCHEM_HEAVY_ATOM_COUNT>
48

> <PUBCHEM_ATOM_DEF_STEREO_COUNT>
9

> <PUBCHEM_ATOM_UDEF_STEREO_COUNT>
0

> <PUBCHEM_BOND_DEF_STEREO_COUNT>
0

> <PUBCHEM_BOND_UDEF_STEREO_COUNT>
0

> <PUBCHEM_ISOTOPIC_ATOM_COUNT>
0

> <PUBCHEM_COMPONENT_COUNT>
1

> <PUBCHEM_CACTVS_TAUTO_COUNT>
-1

> <PUBCHEM_COORDINATE_TYPE>
1
5
255

> <PUBCHEM_BONDANNOTATIONS>
13  49  5
14  50  6
15  51  6
16  34  6
17  35  6
18  36  6
19  25  6
20  26  5
21  27  6

$$$$
