11262300
  -OEChem-08292504422D

105105  0     1  0  0  0  0  0999 V2000
    3.7321   -1.2500    0.0000 O   0  0  0  0  0  0  0  0  0  0  0  0
    8.9282   -1.2500    0.0000 O   0  0  0  0  0  0  0  0  0  0  0  0
    5.4641    1.7500    0.0000 O   0  0  0  0  0  0  0  0  0  0  0  0
    7.8389   -0.4840    0.0000 O   0  0  0  0  0  0  0  0  0  0  0  0
    4.5981   -2.7500    0.0000 O   0  0  0  0  0  0  0  0  0  0  0  0
    2.0000   -0.2500    0.0000 O   0  0  0  0  0  0  0  0  0  0  0  0
    7.1962    2.7500    0.0000 O   0  0  0  0  0  0  0  0  0  0  0  0
    9.7942    0.2500    0.0000 O   0  0  0  0  0  0  0  0  0  0  0  0
    4.5981    0.2500    0.0000 O   0  0  0  0  0  0  0  0  0  0  0  0
    6.3301   -1.7500    0.0000 N   0  0  0  0  0  0  0  0  0  0  0  0
    2.8660    1.2500    0.0000 N   0  0  0  0  0  0  0  0  0  0  0  0
    8.0622    1.2500    0.0000 N   0  0  0  0  0  0  0  0  0  0  0  0
    5.4641   -1.2500    0.0000 C   0  0  1  0  0  0  0  0  0  0  0  0
    4.8213   -0.4840    0.0000 C   0  0  2  0  0  0  0  0  0  0  0  0
    3.7321    1.7500    0.0000 C   0  0  1  0  0  0  0  0  0  0  0  0
    8.0622    0.2500    0.0000 C   0  0  1  0  0  0  0  0  0  0  0  0
    8.0622   -1.7500    0.0000 C   0  0  2  0  0  0  0  0  0  0  0  0
    3.7321   -0.2500    0.0000 C   0  0  2  0  0  0  0  0  0  0  0  0
    3.8816   -0.8259    0.0000 C   0  0  0  0  0  0  0  0  0  0  0  0
    3.7321    2.7500    0.0000 C   0  0  0  0  0  0  0  0  0  0  0  0
    8.4042   -0.6897    0.0000 C   0  0  0  0  0  0  0  0  0  0  0  0
    6.3301    1.2500    0.0000 C   0  0  2  0  0  0  0  0  0  0  0  0
    8.0622   -2.7500    0.0000 C   0  0  0  0  0  0  0  0  0  0  0  0
    7.1962   -1.2500    0.0000 C   0  0  0  0  0  0  0  0  0  0  0  0
    4.5981   -1.7500    0.0000 C   0  0  0  0  0  0  0  0  0  0  0  0
    4.0741    0.6897    0.0000 C   0  0  0  0  0  0  0  0  0  0  0  0
    5.4641    0.2821    0.0000 C   0  0  0  0  0  0  0  0  0  0  0  0
    6.3301    0.2500    0.0000 C   0  0  0  0  0  0  0  0  0  0  0  0
    2.8660    0.2500    0.0000 C   0  0  0  0  0  0  0  0  0  0  0  0
    7.1962    1.7500    0.0000 C   0  0  0  0  0  0  0  0  0  0  0  0
    8.9282   -0.2500    0.0000 C   0  0  0  0  0  0  0  0  0  0  0  0
    4.5981    1.2500    0.0000 C   0  0  0  0  0  0  0  0  0  0  0  0
    6.3301   -2.7500    0.0000 C   0  0  0  0  0  0  0  0  0  0  0  0
    3.1156   -1.4688    0.0000 C   0  0  0  0  0  0  0  0  0  0  0  0
    2.8660    3.2500    0.0000 C   0  0  0  0  0  0  0  0  0  0  0  0
    4.5981    3.2500    0.0000 C   0  0  0  0  0  0  0  0  0  0  0  0
    9.3890   -0.8633    0.0000 C   0  0  0  0  0  0  0  0  0  0  0  0
    7.5231   -1.4289    0.0000 C   0  0  0  0  0  0  0  0  0  0  0  0
    8.9282   -3.2500    0.0000 C   0  0  0  0  0  0  0  0  0  0  0  0
    7.1962   -3.2500    0.0000 C   0  0  0  0  0  0  0  0  0  0  0  0
    2.0000    1.7500    0.0000 C   0  0  0  0  0  0  0  0  0  0  0  0
    3.1931    1.4289    0.0000 C   0  0  0  0  0  0  0  0  0  0  0  0
    5.0589    0.8633    0.0000 C   0  0  0  0  0  0  0  0  0  0  0  0
    8.9282    1.7500    0.0000 C   0  0  0  0  0  0  0  0  0  0  0  0
    7.1962   -0.2500    0.0000 C   0  0  0  0  0  0  0  0  0  0  0  0
    5.8301   -0.6160    0.0000 C   0  0  0  0  0  0  0  0  0  0  0  0
    6.0105   -0.5989    0.0000 H   0  0  0  0  0  0  0  0  0  0  0  0
    4.4657    0.0239    0.0000 H   0  0  0  0  0  0  0  0  0  0  0  0
    3.1951    2.0600    0.0000 H   0  0  0  0  0  0  0  0  0  0  0  0
    7.4516    0.1423    0.0000 H   0  0  0  0  0  0  0  0  0  0  0  0
    8.5991   -2.0600    0.0000 H   0  0  0  0  0  0  0  0  0  0  0  0
    4.3426   -0.3577    0.0000 H   0  0  0  0  0  0  0  0  0  0  0  0
    3.9177   -0.2069    0.0000 H   0  0  0  0  0  0  0  0  0  0  0  0
    4.1916   -1.3628    0.0000 H   0  0  0  0  0  0  0  0  0  0  0  0
    3.7321    3.3700    0.0000 H   0  0  0  0  0  0  0  0  0  0  0  0
    8.5647   -1.2886    0.0000 H   0  0  0  0  0  0  0  0  0  0  0  0
    5.7932    0.9400    0.0000 H   0  0  0  0  0  0  0  0  0  0  0  0
    8.0622   -3.3700    0.0000 H   0  0  0  0  0  0  0  0  0  0  0  0
    4.2345    1.2886    0.0000 H   0  0  0  0  0  0  0  0  0  0  0  0
    5.9391   -0.1164    0.0000 H   0  0  0  0  0  0  0  0  0  0  0  0
    5.8626    0.7570    0.0000 H   0  0  0  0  0  0  0  0  0  0  0  0
    4.9892    0.6806    0.0000 H   0  0  0  0  0  0  0  0  0  0  0  0
    5.7313    0.4105    0.0000 H   0  0  0  0  0  0  0  0  0  0  0  0
    5.7101   -2.7500    0.0000 H   0  0  0  0  0  0  0  0  0  0  0  0
    6.3301   -3.3700    0.0000 H   0  0  0  0  0  0  0  0  0  0  0  0
    6.9501   -2.7500    0.0000 H   0  0  0  0  0  0  0  0  0  0  0  0
    2.7170   -0.9939    0.0000 H   0  0  0  0  0  0  0  0  0  0  0  0
    2.6407   -1.8673    0.0000 H   0  0  0  0  0  0  0  0  0  0  0  0
    3.5142   -1.9437    0.0000 H   0  0  0  0  0  0  0  0  0  0  0  0
    3.1760    3.7869    0.0000 H   0  0  0  0  0  0  0  0  0  0  0  0
    2.3291    3.5600    0.0000 H   0  0  0  0  0  0  0  0  0  0  0  0
    2.5560    2.7131    0.0000 H   0  0  0  0  0  0  0  0  0  0  0  0
    4.9081    2.7131    0.0000 H   0  0  0  0  0  0  0  0  0  0  0  0
    5.1350    3.5600    0.0000 H   0  0  0  0  0  0  0  0  0  0  0  0
    4.2881    3.7869    0.0000 H   0  0  0  0  0  0  0  0  0  0  0  0
    9.2814   -1.4739    0.0000 H   0  0  0  0  0  0  0  0  0  0  0  0
    9.9996   -0.9710    0.0000 H   0  0  0  0  0  0  0  0  0  0  0  0
    9.4967   -0.2527    0.0000 H   0  0  0  0  0  0  0  0  0  0  0  0
    7.1247   -0.9539    0.0000 H   0  0  0  0  0  0  0  0  0  0  0  0
    7.0482   -1.8273    0.0000 H   0  0  0  0  0  0  0  0  0  0  0  0
    7.9216   -1.9038    0.0000 H   0  0  0  0  0  0  0  0  0  0  0  0
    8.6182   -3.7869    0.0000 H   0  0  0  0  0  0  0  0  0  0  0  0
    9.4651   -3.5600    0.0000 H   0  0  0  0  0  0  0  0  0  0  0  0
    9.2382   -2.7131    0.0000 H   0  0  0  0  0  0  0  0  0  0  0  0
    6.8862   -2.7131    0.0000 H   0  0  0  0  0  0  0  0  0  0  0  0
    6.6592   -3.5600    0.0000 H   0  0  0  0  0  0  0  0  0  0  0  0
    7.5062   -3.7869    0.0000 H   0  0  0  0  0  0  0  0  0  0  0  0
    2.3100    2.2869    0.0000 H   0  0  0  0  0  0  0  0  0  0  0  0
    1.4631    2.0600    0.0000 H   0  0  0  0  0  0  0  0  0  0  0  0
    1.6900    1.2131    0.0000 H   0  0  0  0  0  0  0  0  0  0  0  0
    3.5917    1.9039    0.0000 H   0  0  0  0  0  0  0  0  0  0  0  0
    2.7182    1.8274    0.0000 H   0  0  0  0  0  0  0  0  0  0  0  0
    2.7946    0.9540    0.0000 H   0  0  0  0  0  0  0  0  0  0  0  0
    5.1665    0.2528    0.0000 H   0  0  0  0  0  0  0  0  0  0  0  0
    5.6695    0.9710    0.0000 H   0  0  0  0  0  0  0  0  0  0  0  0
    4.9512    1.4739    0.0000 H   0  0  0  0  0  0  0  0  0  0  0  0
    9.2382    1.2131    0.0000 H   0  0  0  0  0  0  0  0  0  0  0  0
    9.4651    2.0600    0.0000 H   0  0  0  0  0  0  0  0  0  0  0  0
    8.6182    2.2869    0.0000 H   0  0  0  0  0  0  0  0  0  0  0  0
    6.8862   -0.7869    0.0000 H   0  0  0  0  0  0  0  0  0  0  0  0
    7.7331   -0.5600    0.0000 H   0  0  0  0  0  0  0  0  0  0  0  0
    7.5062    0.2869    0.0000 H   0  0  0  0  0  0  0  0  0  0  0  0
    5.2932   -0.3060    0.0000 H   0  0  0  0  0  0  0  0  0  0  0  0
    5.5201   -1.1529    0.0000 H   0  0  0  0  0  0  0  0  0  0  0  0
    6.3670   -0.9260    0.0000 H   0  0  0  0  0  0  0  0  0  0  0  0
  1 18  1  0  0  0  0
  1 25  1  0  0  0  0
  2 17  1  0  0  0  0
  2 31  1  0  0  0  0
  3 22  1  0  0  0  0
  3 32  1  0  0  0  0
  4 24  2  0  0  0  0
  5 25  2  0  0  0  0
  6 29  2  0  0  0  0
  7 30  2  0  0  0  0
  8 31  2  0  0  0  0
  9 32  2  0  0  0  0
 10 13  1  0  0  0  0
 10 24  1  0  0  0  0
 10 33  1  0  0  0  0
 11 15  1  0  0  0  0
 11 29  1  0  0  0  0
 11 41  1  0  0  0  0
 12 16  1  0  0  0  0
 12 30  1  0  0  0  0
 12 44  1  0  0  0  0
 13 14  1  0  0  0  0
 13 25  1  0  0  0  0
 13 47  1  1  0  0  0
 14 19  1  0  0  0  0
 14 27  1  6  0  0  0
 14 48  1  0  0  0  0
 15 20  1  1  0  0  0
 15 32  1  0  0  0  0
 15 49  1  0  0  0  0
 16 21  1  6  0  0  0
 16 31  1  0  0  0  0
 16 50  1  0  0  0  0
 17 23  1  6  0  0  0
 17 24  1  0  0  0  0
 17 51  1  0  0  0  0
 18 26  1  1  0  0  0
 18 29  1  0  0  0  0
 18 52  1  0  0  0  0
 19 34  1  0  0  0  0
 19 53  1  0  0  0  0
 19 54  1  0  0  0  0
 20 35  1  0  0  0  0
 20 36  1  0  0  0  0
 20 55  1  0  0  0  0
 21 37  1  0  0  0  0
 21 38  1  0  0  0  0
 21 56  1  0  0  0  0
 22 28  1  1  0  0  0
 22 30  1  0  0  0  0
 22 57  1  0  0  0  0
 23 39  1  0  0  0  0
 23 40  1  0  0  0  0
 23 58  1  0  0  0  0
 26 42  1  0  0  0  0
 26 43  1  0  0  0  0
 26 59  1  0  0  0  0
 27 60  1  0  0  0  0
 27 61  1  0  0  0  0
 27 62  1  0  0  0  0
 28 45  1  0  0  0  0
 28 46  1  0  0  0  0
 28 63  1  0  0  0  0
 33 64  1  0  0  0  0
 33 65  1  0  0  0  0
 33 66  1  0  0  0  0
 34 67  1  0  0  0  0
 34 68  1  0  0  0  0
 34 69  1  0  0  0  0
 35 70  1  0  0  0  0
 35 71  1  0  0  0  0
 35 72  1  0  0  0  0
 36 73  1  0  0  0  0
 36 74  1  0  0  0  0
 36 75  1  0  0  0  0
 37 76  1  0  0  0  0
 37 77  1  0  0  0  0
 37 78  1  0  0  0  0
 38 79  1  0  0  0  0
 38 80  1  0  0  0  0
 38 81  1  0  0  0  0
 39 82  1  0  0  0  0
 39 83  1  0  0  0  0
 39 84  1  0  0  0  0
 40 85  1  0  0  0  0
 40 86  1  0  0  0  0
 40 87  1  0  0  0  0
 41 88  1  0  0  0  0
 41 89  1  0  0  0  0
 41 90  1  0  0  0  0
 42 91  1  0  0  0  0
 42 92  1  0  0  0  0
 42 93  1  0  0  0  0
 43 94  1  0  0  0  0
 43 95  1  0  0  0  0
 43 96  1  0  0  0  0
 44 97  1  0  0  0  0
 44 98  1  0  0  0  0
 44 99  1  0  0  0  0
 45100  1  0  0  0  0
 45101  1  0  0  0  0
 45102  1  0  0  0  0
 46103  1  0  0  0  0
 46104  1  0  0  0  0
 46105  1  0  0  0  0
M  END
> <PUBCHEM_COMPOUND_CID>
11262300

> <PUBCHEM_COMPOUND_CANONICALIZED>
1

> <PUBCHEM_CACTVS_COMPLEXITY>
1100

> <PUBCHEM_CACTVS_HBOND_ACCEPTOR>
9

> <PUBCHEM_CACTVS_HBOND_DONOR>
0

> <PUBCHEM_CACTVS_ROTATABLE_BOND>
7

> <PUBCHEM_CACTVS_SUBSKEYS>
AAADcfB/PAAAAAAAAAAAAAAAAAAAAAAAAAAAAAAAAAAAAAAAAAAAHgAAAAAADTzhgAYCCAMABAAIAAGQGAIAAAAAAAAAAAHIAAACABIAgCQHAAAEBgCQAACIAAAKAAAAAAAAAAAAAAAAAAAAAAAAAAAAAA==

> <PUBCHEM_IUPAC_OPENEYE_NAME>
(3S,6R,9S,12R,15S,18R)-3,6,9,12,18-pentaisopropyl-4,10,16-trimethyl-15-[(1S)-1-methylpropyl]-1,7,13-trioxa-4,10,16-triazacyclooctadecane-2,5,8,11,14,17-hexone

> <PUBCHEM_IUPAC_CAS_NAME>
(3S,6R,9S,12R,15S,18R)-3-[(2S)-butan-2-yl]-4,10,16-trimethyl-6,9,12,15,18-penta(propan-2-yl)-1,7,13-trioxa-4,10,16-triazacyclooctadecane-2,5,8,11,14,17-hexone

> <PUBCHEM_IUPAC_NAME_MARKUP>
(3<I>S</I>,6<I>R</I>,9<I>S</I>,12<I>R</I>,15<I>S</I>,18<I>R</I>)-3-[(2<I>S</I>)-butan-2-yl]-4,10,16-trimethyl-6,9,12,15,18-penta(propan-2-yl)-1,7,13-trioxa-4,10,16-triazacyclooctadecane-2,5,8,11,14,17-hexone

> <PUBCHEM_IUPAC_NAME>
(3S,6R,9S,12R,15S,18R)-3-[(2S)-butan-2-yl]-4,10,16-trimethyl-6,9,12,15,18-penta(propan-2-yl)-1,7,13-trioxa-4,10,16-triazacyclooctadecane-2,5,8,11,14,17-hexone

> <PUBCHEM_IUPAC_SYSTEMATIC_NAME>
(3S,6R,9S,12R,15S,18R)-3-[(2S)-butan-2-yl]-4,10,16-trimethyl-6,9,12,15,18-penta(propan-2-yl)-1,7,13-trioxa-4,10,16-triazacyclooctadecane-2,5,8,11,14,17-hexone

> <PUBCHEM_IUPAC_TRADITIONAL_NAME>
(3S,6R,9S,12R,15S,18R)-3,6,9,12,18-pentaisopropyl-4,10,16-trimethyl-15-[(1S)-1-methylpropyl]-1,7,13-trioxa-4,10,16-triazacyclooctadecane-2,5,8,11,14,17-triquinone

> <PUBCHEM_IUPAC_INCHI>
InChI=1S/C34H59N3O9/c1-16-22(12)25-34(43)46-27(20(8)9)30(39)36(14)23(17(2)3)32(41)44-26(19(6)7)29(38)35(13)24(18(4)5)33(42)45-28(21(10)11)31(40)37(25)15/h17-28H,16H2,1-15H3/t22-,23-,24-,25-,26+,27+,28+/m0/s1

> <PUBCHEM_IUPAC_INCHIKEY>
UQCSETXJXJTMKO-UMURLBKASA-N

> <PUBCHEM_XLOGP3_AA>
6.9

> <PUBCHEM_EXACT_MASS>
653.42513047

> <PUBCHEM_MOLECULAR_FORMULA>
C34H59N3O9

> <PUBCHEM_MOLECULAR_WEIGHT>
653.8

> <PUBCHEM_SMILES>
CC[C@H](C)[C@H]1C(=O)O[C@@H](C(=O)N([C@H](C(=O)O[C@@H](C(=O)N([C@H](C(=O)O[C@@H](C(=O)N1C)C(C)C)C(C)C)C)C(C)C)C(C)C)C)C(C)C

> <PUBCHEM_CONNECTIVITY_SMILES>
CCC(C)C1C(=O)OC(C(=O)N(C(C(=O)OC(C(=O)N(C(C(=O)OC(C(=O)N1C)C(C)C)C(C)C)C)C(C)C)C(C)C)C)C(C)C

> <PUBCHEM_CACTVS_TPSA>
140

> <PUBCHEM_MONOISOTOPIC_WEIGHT>
653.42513047

> <PUBCHEM_TOTAL_CHARGE>
0

> <PUBCHEM_HEAVY_ATOM_COUNT>
46

> <PUBCHEM_ATOM_DEF_STEREO_COUNT>
7

> <PUBCHEM_ATOM_UDEF_STEREO_COUNT>
0

> <PUBCHEM_BOND_DEF_STEREO_COUNT>
0

> <PUBCHEM_BOND_UDEF_STEREO_COUNT>
0

> <PUBCHEM_ISOTOPIC_ATOM_COUNT>
0

> <PUBCHEM_COMPONENT_COUNT>
1

> <PUBCHEM_CACTVS_TAUTO_COUNT>
-1

> <PUBCHEM_COORDINATE_TYPE>
1
5
255

> <PUBCHEM_BONDANNOTATIONS>
13  47  5
14  27  6
15  20  5
16  21  6
17  23  6
18  26  5
22  28  5

$$$$
