164754
  -OEChem-08292504422D

102102  0     1  0  0  0  0  0999 V2000
    4.5981    2.5000    0.0000 O   0  0  0  0  0  0  0  0  0  0  0  0
    5.4641   -2.0000    0.0000 O   0  0  0  0  0  0  0  0  0  0  0  0
    8.0622   -0.5000    0.0000 O   0  0  0  0  0  0  0  0  0  0  0  0
    3.7321   -1.0000    0.0000 O   0  0  0  0  0  0  0  0  0  0  0  0
    6.3301    3.5000    0.0000 O   0  0  0  0  0  0  0  0  0  0  0  0
    9.7942   -2.5000    0.0000 O   0  0  0  0  0  0  0  0  0  0  0  0
    2.8660    2.5000    0.0000 O   0  0  0  0  0  0  0  0  0  0  0  0
    6.3301   -3.5000    0.0000 O   0  0  0  0  0  0  0  0  0  0  0  0
    8.9282    1.0000    0.0000 O   0  0  0  0  0  0  0  0  0  0  0  0
    4.5981    0.5000    0.0000 N   0  0  0  0  0  0  0  0  0  0  0  0
    7.1962    2.0000    0.0000 N   0  0  0  0  0  0  0  0  0  0  0  0
    8.0622   -2.5000    0.0000 N   0  0  0  0  0  0  0  0  0  0  0  0
    3.7321    1.0000    0.0000 C   0  0  1  0  0  0  0  0  0  0  0  0
    7.1962    1.0000    0.0000 C   0  0  1  0  0  0  0  0  0  0  0  0
    7.1962   -2.0000    0.0000 C   0  0  1  0  0  0  0  0  0  0  0  0
    2.8660    0.5000    0.0000 C   0  0  0  0  0  0  0  0  0  0  0  0
    6.2113    0.8264    0.0000 C   0  0  0  0  0  0  0  0  0  0  0  0
    7.6962   -1.1340    0.0000 C   0  0  0  0  0  0  0  0  0  0  0  0
    5.4641   -1.0000    0.0000 C   0  0  2  0  0  0  0  0  0  0  0  0
    5.4641    2.0000    0.0000 C   0  0  2  0  0  0  0  0  0  0  0  0
    8.9282   -1.0000    0.0000 C   0  0  2  0  0  0  0  0  0  0  0  0
    6.4489   -0.8264    0.0000 C   0  0  0  0  0  0  0  0  0  0  0  0
    4.8214    1.2339    0.0000 C   0  0  0  0  0  0  0  0  0  0  0  0
    9.7942   -0.5000    0.0000 C   0  0  0  0  0  0  0  0  0  0  0  0
    4.5981   -0.5000    0.0000 C   0  0  0  0  0  0  0  0  0  0  0  0
    6.3301    2.5000    0.0000 C   0  0  0  0  0  0  0  0  0  0  0  0
    8.9282   -2.0000    0.0000 C   0  0  0  0  0  0  0  0  0  0  0  0
    3.7321    2.0000    0.0000 C   0  0  0  0  0  0  0  0  0  0  0  0
    6.3301   -2.5000    0.0000 C   0  0  0  0  0  0  0  0  0  0  0  0
    8.0622    0.5000    0.0000 C   0  0  0  0  0  0  0  0  0  0  0  0
    2.0000    1.0000    0.0000 C   0  0  0  0  0  0  0  0  0  0  0  0
    2.8660   -0.5000    0.0000 C   0  0  0  0  0  0  0  0  0  0  0  0
    6.0378    1.8112    0.0000 C   0  0  0  0  0  0  0  0  0  0  0  0
    5.8694   -0.1134    0.0000 C   0  0  0  0  0  0  0  0  0  0  0  0
    8.3389   -1.9000    0.0000 C   0  0  0  0  0  0  0  0  0  0  0  0
    7.3541   -0.1943    0.0000 C   0  0  0  0  0  0  0  0  0  0  0  0
    5.4641    1.0000    0.0000 C   0  0  0  0  0  0  0  0  0  0  0  0
    8.0622    2.5000    0.0000 C   0  0  0  0  0  0  0  0  0  0  0  0
    8.0622   -3.5000    0.0000 C   0  0  0  0  0  0  0  0  0  0  0  0
    6.6226    0.1585    0.0000 C   0  0  0  0  0  0  0  0  0  0  0  0
    6.2753   -1.8112    0.0000 C   0  0  0  0  0  0  0  0  0  0  0  0
    4.2464    2.2299    0.0000 C   0  0  0  0  0  0  0  0  0  0  0  0
    5.1633    0.2943    0.0000 C   0  0  0  0  0  0  0  0  0  0  0  0
   10.6603   -1.0000    0.0000 C   0  0  0  0  0  0  0  0  0  0  0  0
    9.7942    0.5000    0.0000 C   0  0  0  0  0  0  0  0  0  0  0  0
    3.7321    0.3800    0.0000 H   0  0  0  0  0  0  0  0  0  0  0  0
    6.7212    1.3985    0.0000 H   0  0  0  0  0  0  0  0  0  0  0  0
    7.7950   -1.8395    0.0000 H   0  0  0  0  0  0  0  0  0  0  0  0
    2.8660    1.1200    0.0000 H   0  0  0  0  0  0  0  0  0  0  0  0
    5.5937    0.8804    0.0000 H   0  0  0  0  0  0  0  0  0  0  0  0
    8.2331   -0.8240    0.0000 H   0  0  0  0  0  0  0  0  0  0  0  0
    5.9391   -1.3985    0.0000 H   0  0  0  0  0  0  0  0  0  0  0  0
    4.8535    1.8923    0.0000 H   0  0  0  0  0  0  0  0  0  0  0  0
    9.4651   -1.3100    0.0000 H   0  0  0  0  0  0  0  0  0  0  0  0
    7.0595   -0.9340    0.0000 H   0  0  0  0  0  0  0  0  0  0  0  0
    4.2595    0.9719    0.0000 H   0  0  0  0  0  0  0  0  0  0  0  0
    9.2573   -0.1900    0.0000 H   0  0  0  0  0  0  0  0  0  0  0  0
    2.3100    1.5369    0.0000 H   0  0  0  0  0  0  0  0  0  0  0  0
    1.4631    1.3100    0.0000 H   0  0  0  0  0  0  0  0  0  0  0  0
    1.6900    0.4631    0.0000 H   0  0  0  0  0  0  0  0  0  0  0  0
    2.2460   -0.5000    0.0000 H   0  0  0  0  0  0  0  0  0  0  0  0
    2.8660   -1.1200    0.0000 H   0  0  0  0  0  0  0  0  0  0  0  0
    3.4860   -0.5000    0.0000 H   0  0  0  0  0  0  0  0  0  0  0  0
    6.6483    1.9189    0.0000 H   0  0  0  0  0  0  0  0  0  0  0  0
    5.9301    2.4218    0.0000 H   0  0  0  0  0  0  0  0  0  0  0  0
    5.4272    1.7036    0.0000 H   0  0  0  0  0  0  0  0  0  0  0  0
    5.2867    0.0987    0.0000 H   0  0  0  0  0  0  0  0  0  0  0  0
    5.6573   -0.6960    0.0000 H   0  0  0  0  0  0  0  0  0  0  0  0
    6.4520   -0.3254    0.0000 H   0  0  0  0  0  0  0  0  0  0  0  0
    7.8640   -2.2986    0.0000 H   0  0  0  0  0  0  0  0  0  0  0  0
    8.7375   -2.3750    0.0000 H   0  0  0  0  0  0  0  0  0  0  0  0
    8.8139   -1.5015    0.0000 H   0  0  0  0  0  0  0  0  0  0  0  0
    7.9367    0.0178    0.0000 H   0  0  0  0  0  0  0  0  0  0  0  0
    7.1421    0.3883    0.0000 H   0  0  0  0  0  0  0  0  0  0  0  0
    6.7715   -0.4063    0.0000 H   0  0  0  0  0  0  0  0  0  0  0  0
    5.7741    0.4631    0.0000 H   0  0  0  0  0  0  0  0  0  0  0  0
    6.0010    1.3100    0.0000 H   0  0  0  0  0  0  0  0  0  0  0  0
    5.1541    1.5369    0.0000 H   0  0  0  0  0  0  0  0  0  0  0  0
    8.3722    1.9631    0.0000 H   0  0  0  0  0  0  0  0  0  0  0  0
    8.5991    2.8100    0.0000 H   0  0  0  0  0  0  0  0  0  0  0  0
    7.7522    3.0369    0.0000 H   0  0  0  0  0  0  0  0  0  0  0  0
    7.4422   -3.5000    0.0000 H   0  0  0  0  0  0  0  0  0  0  0  0
    8.0622   -4.1200    0.0000 H   0  0  0  0  0  0  0  0  0  0  0  0
    8.6822   -3.5000    0.0000 H   0  0  0  0  0  0  0  0  0  0  0  0
    7.2331    0.0508    0.0000 H   0  0  0  0  0  0  0  0  0  0  0  0
    6.7302    0.7690    0.0000 H   0  0  0  0  0  0  0  0  0  0  0  0
    6.0120    0.2661    0.0000 H   0  0  0  0  0  0  0  0  0  0  0  0
    5.6647   -1.7035    0.0000 H   0  0  0  0  0  0  0  0  0  0  0  0
    6.1676   -2.4217    0.0000 H   0  0  0  0  0  0  0  0  0  0  0  0
    6.8858   -1.9188    0.0000 H   0  0  0  0  0  0  0  0  0  0  0  0
    4.7833    2.5399    0.0000 H   0  0  0  0  0  0  0  0  0  0  0  0
    3.9364    2.7668    0.0000 H   0  0  0  0  0  0  0  0  0  0  0  0
    3.7094    1.9199    0.0000 H   0  0  0  0  0  0  0  0  0  0  0  0
    4.5807    0.0822    0.0000 H   0  0  0  0  0  0  0  0  0  0  0  0
    5.3754   -0.2884    0.0000 H   0  0  0  0  0  0  0  0  0  0  0  0
    5.7460    0.5063    0.0000 H   0  0  0  0  0  0  0  0  0  0  0  0
   10.3503   -1.5369    0.0000 H   0  0  0  0  0  0  0  0  0  0  0  0
   11.1972   -1.3100    0.0000 H   0  0  0  0  0  0  0  0  0  0  0  0
   10.9703   -0.4631    0.0000 H   0  0  0  0  0  0  0  0  0  0  0  0
   10.4142    0.5000    0.0000 H   0  0  0  0  0  0  0  0  0  0  0  0
    9.7942    1.1200    0.0000 H   0  0  0  0  0  0  0  0  0  0  0  0
    9.1742    0.5000    0.0000 H   0  0  0  0  0  0  0  0  0  0  0  0
  1 20  1  0  0  0  0
  1 28  1  0  0  0  0
  2 19  1  0  0  0  0
  2 29  1  0  0  0  0
  3 21  1  0  0  0  0
  3 30  1  0  0  0  0
  4 25  2  0  0  0  0
  5 26  2  0  0  0  0
  6 27  2  0  0  0  0
  7 28  2  0  0  0  0
  8 29  2  0  0  0  0
  9 30  2  0  0  0  0
 10 13  1  0  0  0  0
 10 25  1  0  0  0  0
 10 37  1  0  0  0  0
 11 14  1  0  0  0  0
 11 26  1  0  0  0  0
 11 38  1  0  0  0  0
 12 15  1  0  0  0  0
 12 27  1  0  0  0  0
 12 39  1  0  0  0  0
 13 16  1  1  0  0  0
 13 28  1  0  0  0  0
 13 46  1  0  0  0  0
 14 17  1  6  0  0  0
 14 30  1  0  0  0  0
 14 47  1  0  0  0  0
 15 18  1  6  0  0  0
 15 29  1  0  0  0  0
 15 48  1  0  0  0  0
 16 31  1  0  0  0  0
 16 32  1  0  0  0  0
 16 49  1  0  0  0  0
 17 33  1  0  0  0  0
 17 34  1  0  0  0  0
 17 50  1  0  0  0  0
 18 35  1  0  0  0  0
 18 36  1  0  0  0  0
 18 51  1  0  0  0  0
 19 22  1  1  0  0  0
 19 25  1  0  0  0  0
 19 52  1  0  0  0  0
 20 23  1  1  0  0  0
 20 26  1  0  0  0  0
 20 53  1  0  0  0  0
 21 24  1  6  0  0  0
 21 27  1  0  0  0  0
 21 54  1  0  0  0  0
 22 40  1  0  0  0  0
 22 41  1  0  0  0  0
 22 55  1  0  0  0  0
 23 42  1  0  0  0  0
 23 43  1  0  0  0  0
 23 56  1  0  0  0  0
 24 44  1  0  0  0  0
 24 45  1  0  0  0  0
 24 57  1  0  0  0  0
 31 58  1  0  0  0  0
 31 59  1  0  0  0  0
 31 60  1  0  0  0  0
 32 61  1  0  0  0  0
 32 62  1  0  0  0  0
 32 63  1  0  0  0  0
 33 64  1  0  0  0  0
 33 65  1  0  0  0  0
 33 66  1  0  0  0  0
 34 67  1  0  0  0  0
 34 68  1  0  0  0  0
 34 69  1  0  0  0  0
 35 70  1  0  0  0  0
 35 71  1  0  0  0  0
 35 72  1  0  0  0  0
 36 73  1  0  0  0  0
 36 74  1  0  0  0  0
 36 75  1  0  0  0  0
 37 76  1  0  0  0  0
 37 77  1  0  0  0  0
 37 78  1  0  0  0  0
 38 79  1  0  0  0  0
 38 80  1  0  0  0  0
 38 81  1  0  0  0  0
 39 82  1  0  0  0  0
 39 83  1  0  0  0  0
 39 84  1  0  0  0  0
 40 85  1  0  0  0  0
 40 86  1  0  0  0  0
 40 87  1  0  0  0  0
 41 88  1  0  0  0  0
 41 89  1  0  0  0  0
 41 90  1  0  0  0  0
 42 91  1  0  0  0  0
 42 92  1  0  0  0  0
 42 93  1  0  0  0  0
 43 94  1  0  0  0  0
 43 95  1  0  0  0  0
 43 96  1  0  0  0  0
 44 97  1  0  0  0  0
 44 98  1  0  0  0  0
 44 99  1  0  0  0  0
 45100  1  0  0  0  0
 45101  1  0  0  0  0
 45102  1  0  0  0  0
M  END
> <PUBCHEM_COMPOUND_CID>
164754

> <PUBCHEM_COMPOUND_CANONICALIZED>
1

> <PUBCHEM_CACTVS_COMPLEXITY>
952

> <PUBCHEM_CACTVS_HBOND_ACCEPTOR>
9

> <PUBCHEM_CACTVS_HBOND_DONOR>
0

> <PUBCHEM_CACTVS_ROTATABLE_BOND>
6

> <PUBCHEM_CACTVS_SUBSKEYS>
AAADcfB/PAAAAAAAAAAAAAAAAAAAAAAAAAAAAAAAAAAAAAAAAAAAHgAAAAAADTzhgAYCCAMABAAIAAGQGAIAAAAAAAAAAAHIAAACABAAgCQHAAAEBgCQAAAAAAAIAAAAAAAAAAAAAAAAAAAAAAAAAAAAAA==

> <PUBCHEM_IUPAC_OPENEYE_NAME>
(3S,6R,9S,12R,15S,18R)-3,6,9,12,15,18-hexaisopropyl-4,10,16-trimethyl-1,7,13-trioxa-4,10,16-triazacyclooctadecane-2,5,8,11,14,17-hexone

> <PUBCHEM_IUPAC_CAS_NAME>
(3S,6R,9S,12R,15S,18R)-4,10,16-trimethyl-3,6,9,12,15,18-hexa(propan-2-yl)-1,7,13-trioxa-4,10,16-triazacyclooctadecane-2,5,8,11,14,17-hexone

> <PUBCHEM_IUPAC_NAME_MARKUP>
(3<I>S</I>,6<I>R</I>,9<I>S</I>,12<I>R</I>,15<I>S</I>,18<I>R</I>)-4,10,16-trimethyl-3,6,9,12,15,18-hexa(propan-2-yl)-1,7,13-trioxa-4,10,16-triazacyclooctadecane-2,5,8,11,14,17-hexone

> <PUBCHEM_IUPAC_NAME>
(3S,6R,9S,12R,15S,18R)-4,10,16-trimethyl-3,6,9,12,15,18-hexa(propan-2-yl)-1,7,13-trioxa-4,10,16-triazacyclooctadecane-2,5,8,11,14,17-hexone

> <PUBCHEM_IUPAC_SYSTEMATIC_NAME>
(3S,6R,9S,12R,15S,18R)-4,10,16-trimethyl-3,6,9,12,15,18-hexa(propan-2-yl)-1,7,13-trioxa-4,10,16-triazacyclooctadecane-2,5,8,11,14,17-hexone

> <PUBCHEM_IUPAC_TRADITIONAL_NAME>
(3S,6R,9S,12R,15S,18R)-3,6,9,12,15,18-hexaisopropyl-4,10,16-trimethyl-1,7,13-trioxa-4,10,16-triazacyclooctadecane-2,5,8,11,14,17-triquinone

> <PUBCHEM_IUPAC_INCHI>
InChI=1S/C33H57N3O9/c1-16(2)22-31(40)43-26(20(9)10)29(38)35(14)24(18(5)6)33(42)45-27(21(11)12)30(39)36(15)23(17(3)4)32(41)44-25(19(7)8)28(37)34(22)13/h16-27H,1-15H3/t22-,23-,24-,25+,26+,27+/m0/s1

> <PUBCHEM_IUPAC_INCHIKEY>
MIZMDSVSLSIMSC-VYLWARHZSA-N

> <PUBCHEM_XLOGP3_AA>
6.5

> <PUBCHEM_EXACT_MASS>
639.40948040

> <PUBCHEM_MOLECULAR_FORMULA>
C33H57N3O9

> <PUBCHEM_MOLECULAR_WEIGHT>
639.8

> <PUBCHEM_SMILES>
CC(C)[C@H]1C(=O)O[C@@H](C(=O)N([C@H](C(=O)O[C@@H](C(=O)N([C@H](C(=O)O[C@@H](C(=O)N1C)C(C)C)C(C)C)C)C(C)C)C(C)C)C)C(C)C

> <PUBCHEM_CONNECTIVITY_SMILES>
CC(C)C1C(=O)OC(C(=O)N(C(C(=O)OC(C(=O)N(C(C(=O)OC(C(=O)N1C)C(C)C)C(C)C)C)C(C)C)C(C)C)C)C(C)C

> <PUBCHEM_CACTVS_TPSA>
140

> <PUBCHEM_MONOISOTOPIC_WEIGHT>
639.40948040

> <PUBCHEM_TOTAL_CHARGE>
0

> <PUBCHEM_HEAVY_ATOM_COUNT>
45

> <PUBCHEM_ATOM_DEF_STEREO_COUNT>
6

> <PUBCHEM_ATOM_UDEF_STEREO_COUNT>
0

> <PUBCHEM_BOND_DEF_STEREO_COUNT>
0

> <PUBCHEM_BOND_UDEF_STEREO_COUNT>
0

> <PUBCHEM_ISOTOPIC_ATOM_COUNT>
0

> <PUBCHEM_COMPONENT_COUNT>
1

> <PUBCHEM_CACTVS_TAUTO_COUNT>
-1

> <PUBCHEM_COORDINATE_TYPE>
1
5
255

> <PUBCHEM_BONDANNOTATIONS>
13  16  5
14  17  6
15  18  6
19  22  5
20  23  5
21  24  6

$$$$
