57134655
  -OEChem-08242509293D

 69 71  0     1  0  0  0  0  0999 V2000
   -6.3385   -0.4545    1.2247 Cl  0  0  0  0  0  0  0  0  0  0  0  0
   -4.9420   -1.6351   -1.4942 Cl  0  0  0  0  0  0  0  0  0  0  0  0
   -3.4049   -0.5036    2.3647 O   0  0  0  0  0  0  0  0  0  0  0  0
   -1.8550    2.3961   -2.1179 O   0  0  0  0  0  0  0  0  0  0  0  0
   -1.4512    4.7848   -0.5413 O   0  0  0  0  0  0  0  0  0  0  0  0
   -0.3356   -1.6197   -1.2713 O   0  0  0  0  0  0  0  0  0  0  0  0
    0.4992    1.0259    1.7347 O   0  0  0  0  0  0  0  0  0  0  0  0
    3.1865   -1.1060   -1.4624 O   0  0  0  0  0  0  0  0  0  0  0  0
    3.2884   -4.2275   -1.7007 O   0  0  0  0  0  0  0  0  0  0  0  0
   -3.3897    1.3138   -0.7831 N   0  0  0  0  0  0  0  0  0  0  0  0
   -2.3671   -0.9339    0.3463 N   0  0  0  0  0  0  0  0  0  0  0  0
   -0.0632    2.3915   -0.0578 N   0  0  0  0  0  0  0  0  0  0  0  0
    0.7909   -2.6652    0.4738 N   0  0  0  0  0  0  0  0  0  0  0  0
    2.7415   -0.7073    0.7840 N   0  0  0  0  0  0  0  0  0  0  0  0
   -3.9888    0.9151    0.5032 C   0  0  1  0  0  0  0  0  0  0  0  0
   -5.4420    0.5924    0.1153 C   0  0  1  0  0  0  0  0  0  0  0  0
   -5.3671    0.0910   -1.3325 C   0  0  1  0  0  0  0  0  0  0  0  0
   -4.2553    0.9621   -1.9103 C   0  0  0  0  0  0  0  0  0  0  0  0
   -3.2170   -0.2306    1.1784 C   0  0  0  0  0  0  0  0  0  0  0  0
   -2.2418    2.0693   -0.9911 C   0  0  0  0  0  0  0  0  0  0  0  0
   -1.4810    2.5305    0.2490 C   0  0  2  0  0  0  0  0  0  0  0  0
   -1.5195   -2.0257    0.7987 C   0  0  1  0  0  0  0  0  0  0  0  0
   -1.8263    3.9792    0.5625 C   0  0  0  0  0  0  0  0  0  0  0  0
   -2.2588   -3.3553    0.7654 C   0  0  0  0  0  0  0  0  0  0  0  0
   -0.3088   -2.0638   -0.1252 C   0  0  0  0  0  0  0  0  0  0  0  0
    3.1806    0.6892    0.8827 C   0  0  2  0  0  0  0  0  0  0  0  0
    2.2164    1.6280    0.1305 C   0  0  0  0  0  0  0  0  0  0  0  0
    0.8063    1.6273    0.7088 C   0  0  0  0  0  0  0  0  0  0  0  0
    2.0866   -2.8350   -0.1764 C   0  0  2  0  0  0  0  0  0  0  0  0
   -3.4878   -3.3333    1.6569 C   0  0  0  0  0  0  0  0  0  0  0  0
    2.7051   -1.4540   -0.3867 C   0  0  0  0  0  0  0  0  0  0  0  0
    4.6530    0.8355    0.5375 C   0  0  0  0  0  0  0  0  0  0  0  0
    2.0121   -3.6657   -1.4501 C   0  0  0  0  0  0  0  0  0  0  0  0
    5.6257    0.5589    1.4981 C   0  0  0  0  0  0  0  0  0  0  0  0
    5.0318    1.2467   -0.7404 C   0  0  0  0  0  0  0  0  0  0  0  0
    6.9774    0.6933    1.1810 C   0  0  0  0  0  0  0  0  0  0  0  0
    6.3834    1.3812   -1.0577 C   0  0  0  0  0  0  0  0  0  0  0  0
    7.3563    1.1045   -0.0969 C   0  0  0  0  0  0  0  0  0  0  0  0
   -3.9586    1.7703    1.1880 H   0  0  0  0  0  0  0  0  0  0  0  0
   -5.9945    1.5416    0.1001 H   0  0  0  0  0  0  0  0  0  0  0  0
   -6.3099    0.2316   -1.8695 H   0  0  0  0  0  0  0  0  0  0  0  0
   -4.6657    1.9017   -2.2998 H   0  0  0  0  0  0  0  0  0  0  0  0
   -3.6716    0.4932   -2.7093 H   0  0  0  0  0  0  0  0  0  0  0  0
   -1.7066    1.9130    1.1179 H   0  0  0  0  0  0  0  0  0  0  0  0
   -2.3333   -0.6818   -0.6370 H   0  0  0  0  0  0  0  0  0  0  0  0
   -1.1885   -1.7971    1.8193 H   0  0  0  0  0  0  0  0  0  0  0  0
   -1.2791    4.3268    1.4449 H   0  0  0  0  0  0  0  0  0  0  0  0
   -2.9003    4.1017    0.7352 H   0  0  0  0  0  0  0  0  0  0  0  0
    0.2887    2.8516   -0.8930 H   0  0  0  0  0  0  0  0  0  0  0  0
   -2.5599   -3.6064   -0.2592 H   0  0  0  0  0  0  0  0  0  0  0  0
   -1.5910   -4.1594    1.0977 H   0  0  0  0  0  0  0  0  0  0  0  0
    3.0872    0.9351    1.9500 H   0  0  0  0  0  0  0  0  0  0  0  0
    2.1363    1.3505   -0.9275 H   0  0  0  0  0  0  0  0  0  0  0  0
    2.5858    2.6603    0.1785 H   0  0  0  0  0  0  0  0  0  0  0  0
    2.7219   -3.3491    0.5571 H   0  0  0  0  0  0  0  0  0  0  0  0
    0.6981   -3.0220    1.4204 H   0  0  0  0  0  0  0  0  0  0  0  0
    2.3578   -1.1240    1.6275 H   0  0  0  0  0  0  0  0  0  0  0  0
   -4.2815   -2.6988    1.2628 H   0  0  0  0  0  0  0  0  0  0  0  0
   -3.9059   -4.3447    1.7165 H   0  0  0  0  0  0  0  0  0  0  0  0
   -3.2402   -3.0302    2.6785 H   0  0  0  0  0  0  0  0  0  0  0  0
    1.7188   -3.0726   -2.3218 H   0  0  0  0  0  0  0  0  0  0  0  0
    1.2971   -4.4896   -1.3495 H   0  0  0  0  0  0  0  0  0  0  0  0
   -1.6795    5.7029   -0.3166 H   0  0  0  0  0  0  0  0  0  0  0  0
    5.3438    0.2357    2.4967 H   0  0  0  0  0  0  0  0  0  0  0  0
    4.3027    1.4655   -1.5139 H   0  0  0  0  0  0  0  0  0  0  0  0
    7.7349    0.4773    1.9287 H   0  0  0  0  0  0  0  0  0  0  0  0
    6.6789    1.7000   -2.0530 H   0  0  0  0  0  0  0  0  0  0  0  0
    3.4990   -4.8269   -0.9646 H   0  0  0  0  0  0  0  0  0  0  0  0
    8.4087    1.2088   -0.3442 H   0  0  0  0  0  0  0  0  0  0  0  0
  1 16  1  0  0  0  0
  2 17  1  0  0  0  0
  3 19  2  0  0  0  0
  4 20  2  0  0  0  0
  5 23  1  0  0  0  0
  5 63  1  0  0  0  0
  6 25  2  0  0  0  0
  7 28  2  0  0  0  0
  8 31  2  0  0  0  0
  9 33  1  0  0  0  0
  9 68  1  0  0  0  0
 10 15  1  0  0  0  0
 10 18  1  0  0  0  0
 10 20  1  0  0  0  0
 11 19  1  0  0  0  0
 11 22  1  0  0  0  0
 11 45  1  0  0  0  0
 12 21  1  0  0  0  0
 12 28  1  0  0  0  0
 12 49  1  0  0  0  0
 13 25  1  0  0  0  0
 13 29  1  0  0  0  0
 13 56  1  0  0  0  0
 14 26  1  0  0  0  0
 14 31  1  0  0  0  0
 14 57  1  0  0  0  0
 15 16  1  0  0  0  0
 15 19  1  0  0  0  0
 15 39  1  0  0  0  0
 16 17  1  0  0  0  0
 16 40  1  0  0  0  0
 17 18  1  0  0  0  0
 17 41  1  0  0  0  0
 18 42  1  0  0  0  0
 18 43  1  0  0  0  0
 20 21  1  0  0  0  0
 21 23  1  0  0  0  0
 21 44  1  0  0  0  0
 22 24  1  0  0  0  0
 22 25  1  0  0  0  0
 22 46  1  0  0  0  0
 23 47  1  0  0  0  0
 23 48  1  0  0  0  0
 24 30  1  0  0  0  0
 24 50  1  0  0  0  0
 24 51  1  0  0  0  0
 26 27  1  0  0  0  0
 26 32  1  0  0  0  0
 26 52  1  0  0  0  0
 27 28  1  0  0  0  0
 27 53  1  0  0  0  0
 27 54  1  0  0  0  0
 29 31  1  0  0  0  0
 29 33  1  0  0  0  0
 29 55  1  0  0  0  0
 30 58  1  0  0  0  0
 30 59  1  0  0  0  0
 30 60  1  0  0  0  0
 32 34  2  0  0  0  0
 32 35  1  0  0  0  0
 33 61  1  0  0  0  0
 33 62  1  0  0  0  0
 34 36  1  0  0  0  0
 34 64  1  0  0  0  0
 35 37  2  0  0  0  0
 35 65  1  0  0  0  0
 36 38  2  0  0  0  0
 36 66  1  0  0  0  0
 37 38  1  0  0  0  0
 37 67  1  0  0  0  0
 38 69  1  0  0  0  0
M  END
> <PUBCHEM_COMPOUND_CID>
57134655

> <PUBCHEM_CONFORMER_RMSD>
1

> <PUBCHEM_CONFORMER_DIVERSEORDER>
1
5
4
2
3

> <PUBCHEM_MMFF94_PARTIAL_CHARGES>
47
1 -0.29
10 -0.66
11 -0.73
12 -0.73
13 -0.73
14 -0.73
15 0.36
16 0.29
17 0.29
18 0.3
19 0.57
2 -0.29
20 0.57
21 0.36
22 0.36
23 0.28
25 0.57
26 0.44
27 0.06
28 0.57
29 0.36
3 -0.57
31 0.57
32 -0.14
33 0.28
34 -0.15
35 -0.15
36 -0.15
37 -0.15
38 -0.15
4 -0.57
45 0.37
49 0.37
5 -0.68
56 0.37
57 0.37
6 -0.57
63 0.4
64 0.15
65 0.15
66 0.15
67 0.15
68 0.4
69 0.15
7 -0.57
8 -0.57
9 -0.68

> <PUBCHEM_EFFECTIVE_ROTOR_COUNT>
6.4

> <PUBCHEM_PHARMACOPHORE_FEATURES>
16
1 11 donor
1 12 donor
1 13 donor
1 14 donor
1 3 acceptor
1 30 hydrophobe
1 4 acceptor
1 5 acceptor
1 5 donor
1 6 acceptor
1 7 acceptor
1 8 acceptor
1 9 acceptor
1 9 donor
5 10 15 16 17 18 rings
6 32 34 35 36 37 38 rings

> <PUBCHEM_HEAVY_ATOM_COUNT>
38

> <PUBCHEM_ATOM_DEF_STEREO_COUNT>
7

> <PUBCHEM_ATOM_UDEF_STEREO_COUNT>
0

> <PUBCHEM_BOND_DEF_STEREO_COUNT>
0

> <PUBCHEM_BOND_UDEF_STEREO_COUNT>
0

> <PUBCHEM_ISOTOPIC_ATOM_COUNT>
0

> <PUBCHEM_COMPONENT_COUNT>
1

> <PUBCHEM_CACTVS_TAUTO_COUNT>
162

> <PUBCHEM_CONFORMER_ID>
0367CE3F00000001

> <PUBCHEM_MMFF94_ENERGY>
103.1308

> <PUBCHEM_FEATURE_SELFOVERLAP>
81.214

> <PUBCHEM_SHAPE_FINGERPRINT>
10290309 65 18334296422790537427
10675989 125 17180510499991170980
11135926 11 18343297050839422918
11513181 2 18058170531393579519
12035758 1 18261127283343070283
12788726 201 18339068303091386209
13111901 137 18339376205523543550
13402501 40 18411134748971865217
13811026 1 18409446956327820063
13911987 19 18261658317204552029
14840074 17 18131350796039745285
14904385 31 18410014325333240208
18608769 82 18337396053939000147
19611394 137 17825681211794192427
20642791 35 17977663109656724089
20721686 56 18410295791878492730
20764821 26 18266460004035505861
21033648 144 18342461421923867495
21033648 29 17968664817926752319
23559900 14 18265325295088266985
3380486 145 18336561498774857011
3737641 26 18200313217257867485
4093350 32 17131283363139194527
508706 21 18408041835695552839
5265222 85 18268434719205003188
59755656 215 18410290319957755954

> <PUBCHEM_SHAPE_MULTIPOLES>
719.77
15
4.79
1.77
15.04
0.91
0.14
-3.05
-0.55
-1.23
1.03
-0.99
0.44
2.04

> <PUBCHEM_SHAPE_SELFOVERLAP>
1482.93

> <PUBCHEM_SHAPE_VOLUME>
406.5

> <PUBCHEM_COORDINATE_TYPE>
2
5
10

$$$$
